/*---------------------------------------------------------------------------*\
  =========                 |
  \\      /  F ield         | OpenFOAM: The Open Source CFD Toolbox
   \\    /   O peration     | Website:  https://openfoam.org
    \\  /    A nd           | Version:  7
     \\/     M anipulation  |
\*---------------------------------------------------------------------------*/
Build  : 7
Exec   : snappyHexMesh -overwrite
Date   : Feb 25 2020
Time   : 11:41:54
Host   : "DESKTOP-G4K9PBL"
PID    : 1136
I/O    : uncollated
Case   : /home/xiaoyu/Workspace_xiaoyu/gitHub/simple_straight_nozzle_mold_flow/Mold_simple_flow/mold_ver_001
nProcs : 1
sigFpe : Enabling floating point exception trapping (FOAM_SIGFPE).
fileModificationChecking : Monitoring run-time modified files using timeStampMaster (fileModificationSkew 10)
allowSystemOperations : Allowing user-supplied system call operations

// * * * * * * * * * * * * * * * * * * * * * * * * * * * * * * * * * * * * * //
Create time

Create mesh for time = 0

Read mesh in = 0.16 s

Overall mesh bounding box  : (-50 -50 0) (110 110 1000)
Relative tolerance         : 1e-06
Absolute matching distance : 0.00102528

Reading refinement surfaces.
Read refinement surfaces in = 0 s

Reading refinement shells.
Read refinement shells in = 0 s

Setting refinement level of surface to be consistent with shells.
Checked shell refinement in = 0 s

Reading features.
Read features in = 0 s


Determining initial surface intersections
-----------------------------------------

Edge intersection testing:
    Number of edges             : 198800
    Number of edges to retest   : 198800
    Number of intersected edges : 696
Calculated surface intersections in = 0.21 s

Initial mesh : cells:64000  faces:198800  points:71001
Cells per refinement level:
    0	64000

Adding patches for surface regions
----------------------------------

Patch Type                Region                        
----- ----                ------                        
mold:

3     wall                mold                          

Added patches in = 0 s

 Foam::decompositionMethod::New 
{
    method          none;
    numberOfSubdomains 1;
}

Selecting decompositionMethod none
Layer thickness specified as final layer and expansion ratio.
--> FOAM Warning : 
    From function Foam::labelHashSet Foam::polyBoundaryMesh::patchSet(const Foam::UList<Foam::wordRe>&, bool, bool) const
    in file meshes/polyMesh/polyBoundaryMesh/polyBoundaryMesh.C at line 804
    Cannot find any patch or group names matching "(lowerWall|motorBike).*"
--> FOAM Warning : 
    From function Foam::layerParameters::layerParameters(const Foam::dictionary&, const Foam::polyBoundaryMesh&)
    in file snappyHexMeshDriver/layerParameters/layerParameters.C at line 279
    Reading "/home/xiaoyu/Workspace_xiaoyu/gitHub/simple_straight_nozzle_mold_flow/Mold_simple_flow/mold_ver_001/system/snappyHexMeshDict.addLayersControls.layers" from line 220 to line 220
    Layer specification for "(lowerWall|motorBike).*" does not match any patch.
Valid patches are 
4
(
topPatch
fixedWalls
bottomOutflowPatch
mold
)


Refinement phase
----------------

Found point (0.05 0.05 0.55) in cell 126 on processor 0

Surface refinement iteration 0
------------------------------

Marked for refinement due to surface intersection          : 740 cells.
Marked for refinement due to curvature/regions             : 0 cells.
Determined cells to refine in = 0.34 s
Selected for refinement : 740 cells (out of 64000)
Edge intersection testing:
    Number of edges             : 215732
    Number of edges to retest   : 21520
    Number of intersected edges : 3146
Refined mesh in = 0.16 s
After refinement surface refinement iteration 0 : cells:69180  faces:215732  points:77609
Cells per refinement level:
    0	63260
    1	5920

Surface refinement iteration 1
------------------------------

Marked for refinement due to surface intersection          : 3692 cells.
Marked for refinement due to curvature/regions             : 0 cells.
Determined cells to refine in = 0.01 s
Selected for refinement : 3880 cells (out of 69180)
Edge intersection testing:
    Number of edges             : 302312
    Number of edges to retest   : 107328
    Number of intersected edges : 12924
Refined mesh in = 0.28 s
After refinement surface refinement iteration 1 : cells:96340  faces:302312  points:109937
Cells per refinement level:
    0	63040
    1	4020
    2	29280

Surface refinement iteration 2
------------------------------

Marked for refinement due to surface intersection          : 18100 cells.
Marked for refinement due to curvature/regions             : 0 cells.
Determined cells to refine in = 0.01 s
Selected for refinement : 19156 cells (out of 96340)
Edge intersection testing:
    Number of edges             : 741284
    Number of edges to retest   : 541608
    Number of intersected edges : 51788
Refined mesh in = 0.91 s
After refinement surface refinement iteration 2 : cells:230432  faces:741284  points:279481
Cells per refinement level:
    0	62936
    1	3776
    2	19912
    3	143808

Surface refinement iteration 3
------------------------------

Marked for refinement due to surface intersection          : 424 cells.
Marked for refinement due to curvature/regions             : 576 cells.
Determined cells to refine in = 0.08 s
Selected for refinement : 1040 cells (out of 230432)
Edge intersection testing:
    Number of edges             : 767552
    Number of edges to retest   : 45308
    Number of intersected edges : 55856
Refined mesh in = 0.67 s
After refinement surface refinement iteration 3 : cells:237712  faces:767552  points:291817
Cells per refinement level:
    0	62932
    1	3776
    2	19740
    3	146656
    4	4608

Surface refinement iteration 4
------------------------------

Marked for refinement due to surface intersection          : 0 cells.
Marked for refinement due to curvature/regions             : 1876 cells.
Determined cells to refine in = 0.11 s
Selected for refinement : 2820 cells (out of 237712)
Edge intersection testing:
    Number of edges             : 841520
    Number of edges to retest   : 112364
    Number of intersected edges : 66608
Refined mesh in = 0.7 s
After refinement surface refinement iteration 4 : cells:257452  faces:841520  points:328013
Cells per refinement level:
    0	62924
    1	3824
    2	19760
    3	146324
    4	12684
    5	11936

Surface refinement iteration 5
------------------------------

Marked for refinement due to surface intersection          : 0 cells.
Marked for refinement due to curvature/regions             : 1164 cells.
Determined cells to refine in = 0.11 s
Selected for refinement : 1808 cells (out of 257452)
Edge intersection testing:
    Number of edges             : 886244
    Number of edges to retest   : 89440
    Number of intersected edges : 72316
Refined mesh in = 0.72 s
After refinement surface refinement iteration 5 : cells:270108  faces:886244  points:347957
Cells per refinement level:
    0	62912
    1	3872
    2	19996
    3	146864
    4	16880
    5	19584

Surface refinement iteration 6
------------------------------

Marked for refinement due to surface intersection          : 0 cells.
Marked for refinement due to curvature/regions             : 488 cells.
Determined cells to refine in = 0.11 s
Selected for refinement : 712 cells (out of 270108)
Edge intersection testing:
    Number of edges             : 902882
    Number of edges to retest   : 47120
    Number of intersected edges : 74356
Refined mesh in = 0.69 s
After refinement surface refinement iteration 6 : cells:275092  faces:902882  points:354647
Cells per refinement level:
    0	62912
    1	3864
    2	20024
    3	146932
    4	18192
    5	23168

Surface refinement iteration 7
------------------------------

Marked for refinement due to surface intersection          : 0 cells.
Marked for refinement due to curvature/regions             : 268 cells.
Determined cells to refine in = 0.11 s
Selected for refinement : 336 cells (out of 275092)
Edge intersection testing:
    Number of edges             : 910610
    Number of edges to retest   : 26012
    Number of intersected edges : 75240
Refined mesh in = 0.67 s
After refinement surface refinement iteration 7 : cells:277444  faces:910610  points:357635
Cells per refinement level:
    0	62912
    1	3864
    2	20020
    3	146900
    4	18436
    5	25312

Surface refinement iteration 8
------------------------------

Marked for refinement due to surface intersection          : 0 cells.
Marked for refinement due to curvature/regions             : 92 cells.
Determined cells to refine in = 0.11 s
Selected for refinement : 100 cells (out of 277444)
Edge intersection testing:
    Number of edges             : 912986
    Number of edges to retest   : 8762
    Number of intersected edges : 75508
Refined mesh in = 0.64 s
After refinement surface refinement iteration 8 : cells:278144  faces:912986  points:358587
Cells per refinement level:
    0	62912
    1	3864
    2	20020
    3	146892
    4	18408
    5	26048

Surface refinement iteration 9
------------------------------

Marked for refinement due to surface intersection          : 0 cells.
Marked for refinement due to curvature/regions             : 48 cells.
Determined cells to refine in = 0.11 s
Selected for refinement : 52 cells (out of 278144)
Edge intersection testing:
    Number of edges             : 914162
    Number of edges to retest   : 4634
    Number of intersected edges : 75620
Refined mesh in = 0.63 s
After refinement surface refinement iteration 9 : cells:278508  faces:914162  points:359027
Cells per refinement level:
    0	62912
    1	3864
    2	20020
    3	146888
    4	18392
    5	26432

Surface refinement iteration 10
------------------------------

Marked for refinement due to surface intersection          : 0 cells.
Marked for refinement due to curvature/regions             : 0 cells.
Determined cells to refine in = 0.11 s
Selected for refinement : 0 cells (out of 278508)
Stopping refining since too few cells selected.


Removing mesh beyond surface intersections
------------------------------------------

Found point (0.05 0.05 0.55) in global region 0 out of 2 regions.
Keeping all cells in region 0 containing point (0.05 0.05 0.55)
Selected for keeping : 250928 cells.
Edge intersection testing:
    Number of edges             : 853730
    Number of edges to retest   : 68664
    Number of intersected edges : 75620

Shell refinement iteration 0
----------------------------

Marked for refinement due to distance to explicit features : 0 cells.
Marked for refinement due to refinement shells             : 0 cells.
Determined cells to refine in = 3.86 s
Selected for internal refinement : 17526 cells (out of 250928)
Edge intersection testing:
    Number of edges             : 1237142
    Number of edges to retest   : 764656
    Number of intersected edges : 87542
Refined mesh in = 1.43 s
After refinement shell refinement iteration 0 : cells:373610  faces:1237142  points:487555
Cells per refinement level:
    0	62536
    1	5572
    2	22802
    3	164368
    4	44584
    5	73748

Shell refinement iteration 1
----------------------------

Marked for refinement due to distance to explicit features : 0 cells.
Marked for refinement due to refinement shells             : 0 cells.
Determined cells to refine in = 0.28 s
Selected for internal refinement : 5622 cells (out of 373610)
Edge intersection testing:
    Number of edges             : 1361405
    Number of edges to retest   : 371457
    Number of intersected edges : 93584
Refined mesh in = 1.5 s
After refinement shell refinement iteration 1 : cells:412964  faces:1361405  points:533210
Cells per refinement level:
    0	62416
    1	6244
    2	24461
    3	167957
    4	54154
    5	97732

Shell refinement iteration 2
----------------------------

Marked for refinement due to distance to explicit features : 0 cells.
Marked for refinement due to refinement shells             : 0 cells.
Determined cells to refine in = 0.31 s
Selected for internal refinement : 1017 cells (out of 412964)
Edge intersection testing:
    Number of edges             : 1383476
    Number of edges to retest   : 82148
    Number of intersected edges : 94174
Refined mesh in = 1.24 s
After refinement shell refinement iteration 2 : cells:420083  faces:1383476  points:540989
Cells per refinement level:
    0	62318
    1	6945
    2	24979
    3	168881
    4	55660
    5	101300

Shell refinement iteration 3
----------------------------

Marked for refinement due to distance to explicit features : 0 cells.
Marked for refinement due to refinement shells             : 0 cells.
Determined cells to refine in = 0.33 s
Selected for internal refinement : 170 cells (out of 420083)
Edge intersection testing:
    Number of edges             : 1387181
    Number of edges to retest   : 13367
    Number of intersected edges : 94246
Refined mesh in = 1.14 s
After refinement shell refinement iteration 3 : cells:421273  faces:1387181  points:542290
Cells per refinement level:
    0	62304
    1	7041
    2	25085
    3	169039
    4	55704
    5	102100

Shell refinement iteration 4
----------------------------

Marked for refinement due to distance to explicit features : 0 cells.
Marked for refinement due to refinement shells             : 0 cells.
Determined cells to refine in = 0.31 s
Selected for internal refinement : 52 cells (out of 421273)
Edge intersection testing:
    Number of edges             : 1388273
    Number of edges to retest   : 3978
    Number of intersected edges : 94270
Refined mesh in = 1.12 s
After refinement shell refinement iteration 4 : cells:421637  faces:1388273  points:542646
Cells per refinement level:
    0	62300
    1	7073
    2	25085
    3	169035
    4	55692
    5	102452

Shell refinement iteration 5
----------------------------

Marked for refinement due to distance to explicit features : 0 cells.
Marked for refinement due to refinement shells             : 0 cells.
Determined cells to refine in = 0.38 s
Selected for internal refinement : 8 cells (out of 421637)
Stopping refining since too few cells selected.


Dangling coarse cells refinement iteration 0
--------------------------------------------

Determined cells to refine in = 0.01 s
Selected for refinement : 28 cells (out of 421637)
Edge intersection testing:
    Number of edges             : 1388693
    Number of edges to retest   : 3124
    Number of intersected edges : 94270
Refined mesh in = 1.19 s
After refinement coarse cell refinement iteration 0 : cells:421833  faces:1388693  points:542702
Cells per refinement level:
    0	62300
    1	7073
    2	25085
    3	169007
    4	55916
    5	102452

Dangling coarse cells refinement iteration 1
--------------------------------------------

Determined cells to refine in = 0.01 s
Selected for refinement : 0 cells (out of 421833)
Stopping refining since too few cells selected.


Dangling coarse cells refinement iteration 0
--------------------------------------------

Determined cells to refine in = 0 s
Selected for refinement : 0 cells (out of 421833)
Stopping refining since too few cells selected.


Splitting mesh at surface intersections
---------------------------------------

Introducing baffles for 94270 faces that are intersected by the surface.

Edge intersection testing:
    Number of edges             : 1475507
    Number of edges to retest   : 572067
    Number of intersected edges : 177146
Created baffles in = 1.29 s


After introducing baffles : cells:421833  faces:1475507  points:542702
Cells per refinement level:
    0	62300
    1	7073
    2	25085
    3	169007
    4	55916
    5	102452

Introducing baffles to block off problem cells
----------------------------------------------

markFacesOnProblemCells : marked 110231 additional internal faces to be converted into baffles.
Analyzed problem cells in = 0.84 s


Introducing baffles to delete problem cells.

Edge intersection testing:
    Number of edges             : 1585738
    Number of edges to retest   : 385323
    Number of intersected edges : 177146
Created baffles in = 1.38 s


After introducing baffles : cells:421833  faces:1585738  points:542702
Cells per refinement level:
    0	62300
    1	7073
    2	25085
    3	169007
    4	55916
    5	102452

Remove unreachable sections of mesh
-----------------------------------

Keeping all cells in region 0 containing point (0.05 0.05 0.55)
Selected for keeping : 303246 cells.
Edge intersection testing:
    Number of edges             : 1020192
    Number of edges to retest   : 0
    Number of intersected edges : 85882
Split mesh in = 7.04 s


After subsetting : cells:303246  faces:1020192  points:416915
Cells per refinement level:
    0	62300
    1	7073
    2	25085
    3	112848
    4	37920
    5	58020

Handling cells with snap problems
---------------------------------

Introducing baffles for 85882 faces that are intersected by the surface.

Edge intersection testing:
    Number of edges             : 1020192
    Number of edges to retest   : 274568
    Number of intersected edges : 85882
Created baffles in = 0.71 s


After introducing baffles : cells:303246  faces:1020192  points:416915
Cells per refinement level:
    0	62300
    1	7073
    2	25085
    3	112848
    4	37920
    5	58020

Introducing baffles to block off problem cells
----------------------------------------------

markFacesOnProblemCells : marked 0 additional internal faces to be converted into baffles.
Analyzed problem cells in = 0.62 s


Introducing baffles to delete problem cells.

Edge intersection testing:
    Number of edges             : 1020192
    Number of edges to retest   : 0
    Number of intersected edges : 85882
Created baffles in = 0.72 s


After introducing baffles : cells:303246  faces:1020192  points:416915
Cells per refinement level:
    0	62300
    1	7073
    2	25085
    3	112848
    4	37920
    5	58020

Remove unreachable sections of mesh
-----------------------------------

Keeping all cells in region 0 containing point (0.05 0.05 0.55)
Selected for keeping : 303246 cells.
Edge intersection testing:
    Number of edges             : 1020192
    Number of edges to retest   : 0
    Number of intersected edges : 85882
Split mesh in = 4.25 s


After subsetting : cells:303246  faces:1020192  points:416915
Cells per refinement level:
    0	62300
    1	7073
    2	25085
    3	112848
    4	37920
    5	58020

Merge free-standing baffles
---------------------------

freeStandingBaffles : detected 0 free-standing baffles out of 0

Detected free-standing baffles : 0
Merged free-standing baffles in = 0.28 s


dupNonManifoldPoints : Found : 0 non-manifold points (out of 416915)
Edge intersection testing:
    Number of edges             : 1020192
    Number of edges to retest   : 0
    Number of intersected edges : 85882
Detected unsplittable baffles : 0

Merge refined boundary faces
----------------------------

Merging 1646 sets of faces.

Edge intersection testing:
    Number of edges             : 1018466
    Number of edges to retest   : 11622
    Number of intersected edges : 84156

Undo iteration 0
----------------
Checking faces in error :
    non-orthogonality > 65  degrees                        : 0
    faces with face pyramid volume < 1e-13                 : 0
    faces with face-decomposition tet quality < 1e-30      : 0
    faces with concavity > 80  degrees                     : 0
    faces with skewness > 4   (internal) or 20  (boundary) : 0
    faces with interpolation weights (0..1)  < 0.02        : 0
    faces with volume ratio of neighbour cells < 0.01      : 0
    faces with face twist < 0.02                           : 0
    faces on cells with determinant < 0.001                : 0

Merging all points on surface that
- are used by only two boundary faces and
- make an angle with a cosine of more than 0.707107.

Removing 1599 straight edge points ...

Edge intersection testing:
    Number of edges             : 1018466
    Number of edges to retest   : 11897
    Number of intersected edges : 84156

Undo iteration 0
----------------
Checking faces in error :
    non-orthogonality > 65  degrees                        : 0
    faces with face pyramid volume < 1e-13                 : 0
    faces with face-decomposition tet quality < 1e-30      : 0
    faces with concavity > 80  degrees                     : 0
    faces with skewness > 4   (internal) or 20  (boundary) : 0
    faces with interpolation weights (0..1)  < 0.02        : 0
    faces with volume ratio of neighbour cells < 0.01      : 0
    faces with face twist < 0.02                           : 0
    faces on cells with determinant < 0.001                : 0
Refined mesh : cells:303246  faces:1018466  points:415276
Cells per refinement level:
    0	62300
    1	7073
    2	25085
    3	112848
    4	37920
    5	58020
Writing mesh to time constant
Wrote mesh in = 5.36 s.
Mesh refined in = 42.88 s.

Morphing phase
--------------


Snapping to features in 10 iterations ...
Constructing mesh displacer ...
Using mesh parameters 
{
    maxNonOrtho     65;
    maxBoundarySkewness 20;
    maxInternalSkewness 4;
    maxConcave      80;
    minFlatness     0.5;
    minVol          1e-13;
    minTetQuality   1e-30;
    minArea         -1;
    minTwist        0.02;
    minDeterminant  0.001;
    minFaceWeight   0.02;
    minVolRatio     0.01;
    minTriangleTwist -1;
    nSmoothScale    4;
    errorReduction  0.75;
}


Checking initial mesh ...
Checking faces in error :
    non-orthogonality > 65  degrees                        : 0
    faces with face pyramid volume < 1e-13                 : 0
    faces with face-decomposition tet quality < 1e-30      : 0
    faces with concavity > 80  degrees                     : 0
    faces with skewness > 4   (internal) or 20  (boundary) : 0
    faces with interpolation weights (0..1)  < 0.02        : 0
    faces with volume ratio of neighbour cells < 0.01      : 0
    faces with face twist < 0.02                           : 0
    faces on cells with determinant < 0.001                : 0
Detected 0 illegal faces (concave, zero area or negative cell pyramid volume)
Checked initial mesh in = 1.13 s


Smoothing patch points ...
Smoothing iteration 0
Found 0 non-manifold point(s).

Scaling iteration 0
Moving mesh using displacement scaling : min:1  max:1
Checking faces in error :
    non-orthogonality > 65  degrees                        : 0
    faces with face pyramid volume < 1e-13                 : 0
    faces with face-decomposition tet quality < 1e-30      : 0
    faces with concavity > 80  degrees                     : 0
    faces with skewness > 4   (internal) or 20  (boundary) : 0
    faces with interpolation weights (0..1)  < 0.02        : 0
    faces with volume ratio of neighbour cells < 0.01      : 0
    faces with face twist < 0.02                           : 0
    faces on cells with determinant < 0.001                : 0
Successfully moved mesh

Smoothing iteration 1
Found 0 non-manifold point(s).

Scaling iteration 0
Moving mesh using displacement scaling : min:1  max:1
Checking faces in error :
    non-orthogonality > 65  degrees                        : 0
    faces with face pyramid volume < 1e-13                 : 0
    faces with face-decomposition tet quality < 1e-30      : 0
    faces with concavity > 80  degrees                     : 0
    faces with skewness > 4   (internal) or 20  (boundary) : 0
    faces with interpolation weights (0..1)  < 0.02        : 0
    faces with volume ratio of neighbour cells < 0.01      : 0
    faces with face twist < 0.02                           : 0
    faces on cells with determinant < 0.001                : 0
Successfully moved mesh

Smoothing iteration 2
Found 0 non-manifold point(s).

Scaling iteration 0
Moving mesh using displacement scaling : min:1  max:1
Checking faces in error :
    non-orthogonality > 65  degrees                        : 0
    faces with face pyramid volume < 1e-13                 : 0
    faces with face-decomposition tet quality < 1e-30      : 0
    faces with concavity > 80  degrees                     : 0
    faces with skewness > 4   (internal) or 20  (boundary) : 0
    faces with interpolation weights (0..1)  < 0.02        : 0
    faces with volume ratio of neighbour cells < 0.01      : 0
    faces with face twist < 0.02                           : 0
    faces on cells with determinant < 0.001                : 0
Successfully moved mesh

Patch points smoothed in = 3.82 s



Morph iteration 0
-----------------
Calculating patchDisplacement as distance to nearest surface point ...
Wanted displacement : average:0.103923 min:0 max:0.404811
Calculated surface displacement in = 0.05 s


Detecting near surfaces ...
Overriding nearest with intersection of close gaps at 0 out of 88201 points.
Overriding displacement on features :
   implicit features    : true
   explicit features    : false
   multi-patch features : false

Attraction:
     linear   : max:(-0.311912 -0.258037 0) avg:(-8.00903e-06 1.23507e-05 -0.000825894)
     feature  : max:(-0.311912 -0.258037 -0) avg:(-9.7395e-05 -0.000141556 -0.000336952)
Feature analysis : total master points:88201 attraction to :
    feature point   : 0
    feature edge    : 3672
    nearest surface : 84529
    rest            : 0

--> FOAM Warning : Displacement (-0.000899979 0.00151989 -4.15535e-06) at mesh point 115244 coord (38.6262 6.39925 6.25) points through the surrounding patch faces
Smoothing displacement ...
Iteration 0
Iteration 10
Iteration 20
Displacement smoothed in = 1.24 s


Moving mesh ...

Iteration 0
Moving mesh using displacement scaling : min:1  max:1
Checking faces in error :
    non-orthogonality > 65  degrees                        : 0
    faces with face pyramid volume < 1e-13                 : 0
    faces with face-decomposition tet quality < 1e-30      : 0
    faces with concavity > 80  degrees                     : 0
    faces with skewness > 4   (internal) or 20  (boundary) : 0
    faces with interpolation weights (0..1)  < 0.02        : 0
    faces with volume ratio of neighbour cells < 0.01      : 0
    faces with face twist < 0.02                           : 0
    faces on cells with determinant < 0.001                : 0
Successfully moved mesh
Moved mesh in = 1.14 s



Morph iteration 1
-----------------
Calculating patchDisplacement as distance to nearest surface point ...
Wanted displacement : average:0.0975274 min:0 max:0.383503
Calculated surface displacement in = 0.06 s


Detecting near surfaces ...
Overriding nearest with intersection of close gaps at 0 out of 88201 points.
Overriding displacement on features :
   implicit features    : true
   explicit features    : false
   multi-patch features : false

Attraction:
     linear   : max:(-0.295494 -0.244454 -1.33227e-15) avg:(-7.23269e-06 1.27632e-05 -0.000862491)
     feature  : max:(-0.295494 -0.244454 -0) avg:(-0.00011624 -0.000154819 -0.000400819)
Feature analysis : total master points:88201 attraction to :
    feature point   : 0
    feature edge    : 3656
    nearest surface : 84545
    rest            : 0

--> FOAM Warning : Displacement (0.000464023 0.00223509 -2.52236e-05) at mesh point 580 coord (22.0925 6.20027 6.24999) points through the surrounding patch faces
Smoothing displacement ...
Iteration 0
Iteration 10
Iteration 20
Displacement smoothed in = 1.15 s


Moving mesh ...

Iteration 0
Moving mesh using displacement scaling : min:1  max:1
Checking faces in error :
    non-orthogonality > 65  degrees                        : 0
    faces with face pyramid volume < 1e-13                 : 0
    faces with face-decomposition tet quality < 1e-30      : 0
    faces with concavity > 80  degrees                     : 0
    faces with skewness > 4   (internal) or 20  (boundary) : 0
    faces with interpolation weights (0..1)  < 0.02        : 0
    faces with volume ratio of neighbour cells < 0.01      : 0
    faces with face twist < 0.02                           : 0
    faces on cells with determinant < 0.001                : 0
Successfully moved mesh
Moved mesh in = 1.18 s



Morph iteration 2
-----------------
Calculating patchDisplacement as distance to nearest surface point ...
Wanted displacement : average:0.0852644 min:0 max:0.340373
Calculated surface displacement in = 0.06 s


Detecting near surfaces ...
Overriding nearest with intersection of close gaps at 0 out of 88201 points.
Overriding displacement on features :
   implicit features    : true
   explicit features    : false
   multi-patch features : false

Attraction:
     linear   : max:(-0.262262 -0.216962 4.44089e-16) avg:(-5.81337e-06 1.30595e-05 -0.000890642)
     feature  : max:(-0.262262 -0.216962 -0) avg:(-0.000102202 -0.000173228 -0.000548434)
Feature analysis : total master points:88201 attraction to :
    feature point   : 0
    feature edge    : 3608
    nearest surface : 84593
    rest            : 0

--> FOAM Warning : Displacement (0.00151009 0.0073988 -5.11273e-05) at mesh point 580 coord (22.093 6.20251 6.24997) points through the surrounding patch faces
Smoothing displacement ...
Iteration 0
Iteration 10
Iteration 20
Displacement smoothed in = 1.19 s


Moving mesh ...

Iteration 0
Moving mesh using displacement scaling : min:1  max:1
Checking faces in error :
    non-orthogonality > 65  degrees                        : 0
    faces with face pyramid volume < 1e-13                 : 0
    faces with face-decomposition tet quality < 1e-30      : 0
    faces with concavity > 80  degrees                     : 0
    faces with skewness > 4   (internal) or 20  (boundary) : 0
    faces with interpolation weights (0..1)  < 0.02        : 0
    faces with volume ratio of neighbour cells < 0.01      : 0
    faces with face twist < 0.02                           : 0
    faces on cells with determinant < 0.001                : 0
Successfully moved mesh
Moved mesh in = 1.14 s



Morph iteration 3
-----------------
Calculating patchDisplacement as distance to nearest surface point ...
Wanted displacement : average:0.0689071 min:0 max:0.279945
Calculated surface displacement in = 0.06 s


Detecting near surfaces ...
Overriding nearest with intersection of close gaps at 0 out of 88201 points.
Overriding displacement on features :
   implicit features    : true
   explicit features    : false
   multi-patch features : false

Attraction:
     linear   : max:(-0.215701 -0.178444 4.44089e-16) avg:(-4.06642e-06 1.26366e-05 -0.000850653)
     feature  : max:(-0.215701 -0.178444 -0) avg:(-0.000104646 -0.000170691 -0.000588134)
Feature analysis : total master points:88201 attraction to :
    feature point   : 0
    feature edge    : 3576
    nearest surface : 84625
    rest            : 0

--> FOAM Warning : Displacement (0.00302084 0.0140932 -7.22586e-05) at mesh point 580 coord (22.0945 6.2099 6.24992) points through the surrounding patch faces
Smoothing displacement ...
Iteration 0
Iteration 10
Iteration 20
Displacement smoothed in = 1.16 s


Moving mesh ...

Iteration 0
Moving mesh using displacement scaling : min:1  max:1
Checking faces in error :
    non-orthogonality > 65  degrees                        : 0
    faces with face pyramid volume < 1e-13                 : 0
    faces with face-decomposition tet quality < 1e-30      : 0
    faces with concavity > 80  degrees                     : 0
    faces with skewness > 4   (internal) or 20  (boundary) : 0
    faces with interpolation weights (0..1)  < 0.02        : 0
    faces with volume ratio of neighbour cells < 0.01      : 0
    faces with face twist < 0.02                           : 0
    faces on cells with determinant < 0.001                : 0
Successfully moved mesh
Moved mesh in = 1.12 s



Morph iteration 4
-----------------
Calculating patchDisplacement as distance to nearest surface point ...
Wanted displacement : average:0.0509005 min:0 max:0.21258
Calculated surface displacement in = 0.05 s


Detecting near surfaces ...
Overriding nearest with intersection of close gaps at 0 out of 88201 points.
Overriding displacement on features :
   implicit features    : true
   explicit features    : false
   multi-patch features : false

Attraction:
     linear   : max:(0.124952 -0.171981 -4.44089e-16) avg:(-2.3844e-06 1.11157e-05 -0.000700855)
     feature  : max:(0.124952 -0.171981 -0) avg:(-0.000113775 -0.000182897 -0.0004967)
Feature analysis : total master points:88201 attraction to :
    feature point   : 0
    feature edge    : 3560
    nearest surface : 84641
    rest            : 0

--> FOAM Warning : Displacement (0.00460585 0.0199573 -7.4675e-05) at mesh point 580 coord (22.0975 6.224 6.24984) points through the surrounding patch faces
Smoothing displacement ...
Iteration 0
Iteration 10
Iteration 20
Displacement smoothed in = 1.22 s


Moving mesh ...

Iteration 0
Moving mesh using displacement scaling : min:1  max:1
Checking faces in error :
    non-orthogonality > 65  degrees                        : 0
    faces with face pyramid volume < 1e-13                 : 0
    faces with face-decomposition tet quality < 1e-30      : 0
    faces with concavity > 80  degrees                     : 0
    faces with skewness > 4   (internal) or 20  (boundary) : 0
    faces with interpolation weights (0..1)  < 0.02        : 0
    faces with volume ratio of neighbour cells < 0.01      : 0
    faces with face twist < 0.02                           : 0
    faces on cells with determinant < 0.001                : 0
Successfully moved mesh
Moved mesh in = 1.12 s



Morph iteration 5
-----------------
Calculating patchDisplacement as distance to nearest surface point ...
Wanted displacement : average:0.0339172 min:0 max:0.150356
Calculated surface displacement in = 0.05 s


Detecting near surfaces ...
Overriding nearest with intersection of close gaps at 0 out of 88201 points.
Overriding displacement on features :
   implicit features    : true
   explicit features    : false
   multi-patch features : false

Attraction:
     linear   : max:(0.0883772 -0.12164 0) avg:(-1.09106e-06 6.14433e-06 -0.000455692)
     feature  : max:(0.0883772 -0.12164 -0) avg:(-9.83805e-05 -0.000186311 -0.000315675)
Feature analysis : total master points:88201 attraction to :
    feature point   : 0
    feature edge    : 3544
    nearest surface : 84657
    rest            : 0

--> FOAM Warning : Displacement (0.00558486 0.0222667 -5.50721e-05) at mesh point 580 coord (22.1021 6.24395 6.24977) points through the surrounding patch faces
Smoothing displacement ...
Iteration 0
Iteration 10
Iteration 20
Displacement smoothed in = 1.17 s


Moving mesh ...

Iteration 0
Moving mesh using displacement scaling : min:1  max:1
Checking faces in error :
    non-orthogonality > 65  degrees                        : 0
    faces with face pyramid volume < 1e-13                 : 0
    faces with face-decomposition tet quality < 1e-30      : 0
    faces with concavity > 80  degrees                     : 0
    faces with skewness > 4   (internal) or 20  (boundary) : 0
    faces with interpolation weights (0..1)  < 0.02        : 0
    faces with volume ratio of neighbour cells < 0.01      : 0
    faces with face twist < 0.02                           : 0
    faces on cells with determinant < 0.001                : 0
Successfully moved mesh
Moved mesh in = 1.16 s



Morph iteration 6
-----------------
Calculating patchDisplacement as distance to nearest surface point ...
Wanted displacement : average:0.0199857 min:0 max:0.0914757
Calculated surface displacement in = 0.04 s


Detecting near surfaces ...
Overriding nearest with intersection of close gaps at 0 out of 88201 points.
Overriding displacement on features :
   implicit features    : true
   explicit features    : false
   multi-patch features : false

Attraction:
     linear   : max:(0.0537682 -0.0740054 8.88178e-16) avg:(-5.33796e-07 2.72739e-06 -0.000188363)
     feature  : max:(0.0136488 0.108042 0) avg:(-2.84006e-05 -0.000138214 -9.87524e-05)
Feature analysis : total master points:88201 attraction to :
    feature point   : 0
    feature edge    : 3544
    nearest surface : 84657
    rest            : 0

--> FOAM Warning : Displacement (0.00529674 0.0195555 -2.69372e-05) at mesh point 580 coord (22.1077 6.26622 6.24972) points through the surrounding patch faces
Smoothing displacement ...
Iteration 0
Iteration 10
Iteration 20
Displacement smoothed in = 1.16 s


Moving mesh ...

Iteration 0
Moving mesh using displacement scaling : min:1  max:1
Checking faces in error :
    non-orthogonality > 65  degrees                        : 0
    faces with face pyramid volume < 1e-13                 : 0
    faces with face-decomposition tet quality < 1e-30      : 0
    faces with concavity > 80  degrees                     : 0
    faces with skewness > 4   (internal) or 20  (boundary) : 0
    faces with interpolation weights (0..1)  < 0.02        : 0
    faces with volume ratio of neighbour cells < 0.01      : 0
    faces with face twist < 0.02                           : 0
    faces on cells with determinant < 0.001                : 0
Successfully moved mesh
Moved mesh in = 1.11 s



Morph iteration 7
-----------------
Calculating patchDisplacement as distance to nearest surface point ...
Wanted displacement : average:0.00968286 min:0 max:0.0446755
Calculated surface displacement in = 0.06 s


Detecting near surfaces ...
Overriding nearest with intersection of close gaps at 0 out of 88201 points.
Overriding displacement on features :
   implicit features    : true
   explicit features    : false
   multi-patch features : false

Attraction:
     linear   : max:(0.0262597 -0.0361432 8.88178e-16) avg:(-2.98346e-07 1.03241e-06 7.26162e-06)
     feature  : max:(0.0108938 0.0862345 0) avg:(1.13361e-05 -0.000134407 5.28587e-05)
Feature analysis : total master points:88201 attraction to :
    feature point   : 0
    feature edge    : 3544
    nearest surface : 84657
    rest            : 0

--> FOAM Warning : Displacement (0.00371909 0.0129647 -7.53396e-06) at mesh point 580 coord (22.113 6.28578 6.24969) points through the surrounding patch faces
Smoothing displacement ...
Iteration 0
Iteration 10
Iteration 20
Displacement smoothed in = 1.16 s


Moving mesh ...

Iteration 0
Moving mesh using displacement scaling : min:1  max:1
Checking faces in error :
    non-orthogonality > 65  degrees                        : 0
    faces with face pyramid volume < 1e-13                 : 0
    faces with face-decomposition tet quality < 1e-30      : 18
    faces with concavity > 80  degrees                     : 0
    faces with skewness > 4   (internal) or 20  (boundary) : 0
    faces with interpolation weights (0..1)  < 0.02        : 0
    faces with volume ratio of neighbour cells < 0.01      : 0
    faces with face twist < 0.02                           : 0
    faces on cells with determinant < 0.001                : 0

Iteration 1
Moving mesh using displacement scaling : min:0.75  max:1
Checking faces in error :
    non-orthogonality > 65  degrees                        : 0
    faces with face pyramid volume < 1e-13                 : 0
    faces with face-decomposition tet quality < 1e-30      : 13
    faces with concavity > 80  degrees                     : 0
    faces with skewness > 4   (internal) or 20  (boundary) : 0
    faces with interpolation weights (0..1)  < 0.02        : 0
    faces with volume ratio of neighbour cells < 0.01      : 0
    faces with face twist < 0.02                           : 0
    faces on cells with determinant < 0.001                : 0

Iteration 2
Moving mesh using displacement scaling : min:0.5625  max:1
Checking faces in error :
    non-orthogonality > 65  degrees                        : 0
    faces with face pyramid volume < 1e-13                 : 0
    faces with face-decomposition tet quality < 1e-30      : 8
    faces with concavity > 80  degrees                     : 0
    faces with skewness > 4   (internal) or 20  (boundary) : 0
    faces with interpolation weights (0..1)  < 0.02        : 0
    faces with volume ratio of neighbour cells < 0.01      : 0
    faces with face twist < 0.02                           : 0
    faces on cells with determinant < 0.001                : 0

Iteration 3
Moving mesh using displacement scaling : min:0.421875  max:1
Checking faces in error :
    non-orthogonality > 65  degrees                        : 0
    faces with face pyramid volume < 1e-13                 : 0
    faces with face-decomposition tet quality < 1e-30      : 8
    faces with concavity > 80  degrees                     : 0
    faces with skewness > 4   (internal) or 20  (boundary) : 0
    faces with interpolation weights (0..1)  < 0.02        : 0
    faces with volume ratio of neighbour cells < 0.01      : 0
    faces with face twist < 0.02                           : 0
    faces on cells with determinant < 0.001                : 0

Iteration 4
Moving mesh using displacement scaling : min:0.316406  max:1
Checking faces in error :
    non-orthogonality > 65  degrees                        : 0
    faces with face pyramid volume < 1e-13                 : 0
    faces with face-decomposition tet quality < 1e-30      : 8
    faces with concavity > 80  degrees                     : 0
    faces with skewness > 4   (internal) or 20  (boundary) : 0
    faces with interpolation weights (0..1)  < 0.02        : 0
    faces with volume ratio of neighbour cells < 0.01      : 0
    faces with face twist < 0.02                           : 0
    faces on cells with determinant < 0.001                : 0

Iteration 5
Displacement scaling for error reduction set to 0.
Moving mesh using displacement scaling : min:0.237305  max:1
Checking faces in error :
    non-orthogonality > 65  degrees                        : 0
    faces with face pyramid volume < 1e-13                 : 0
    faces with face-decomposition tet quality < 1e-30      : 0
    faces with concavity > 80  degrees                     : 0
    faces with skewness > 4   (internal) or 20  (boundary) : 0
    faces with interpolation weights (0..1)  < 0.02        : 0
    faces with volume ratio of neighbour cells < 0.01      : 0
    faces with face twist < 0.02                           : 0
    faces on cells with determinant < 0.001                : 0
Successfully moved mesh
Moved mesh in = 3.3 s



Morph iteration 8
-----------------
Calculating patchDisplacement as distance to nearest surface point ...
Wanted displacement : average:0.00347268 min:0 max:0.0282638
Calculated surface displacement in = 0.05 s


Detecting near surfaces ...
Overriding nearest with intersection of close gaps at 0 out of 88201 points.
Overriding displacement on features :
   implicit features    : true
   explicit features    : false
   multi-patch features : false

Attraction:
     linear   : max:(0.0166131 -0.0228659 4.44089e-16) avg:(1.64085e-07 -7.76915e-08 7.83007e-05)
     feature  : max:(0.00907418 0.0718302 0) avg:(4.16785e-05 -6.37217e-05 9.65926e-05)
Feature analysis : total master points:88201 attraction to :
    feature point   : 0
    feature edge    : 3544
    nearest surface : 84657
    rest            : 0

--> FOAM Warning : Displacement (0.00173371 0.00584967 -7.93096e-07) at mesh point 580 coord (22.1167 6.29874 6.24968) points through the surrounding patch faces
Smoothing displacement ...
Iteration 0
Iteration 10
Iteration 20
Displacement smoothed in = 1.17 s


Moving mesh ...

Iteration 0
Moving mesh using displacement scaling : min:1  max:1
Checking faces in error :
    non-orthogonality > 65  degrees                        : 0
    faces with face pyramid volume < 1e-13                 : 12
    faces with face-decomposition tet quality < 1e-30      : 66
    faces with concavity > 80  degrees                     : 0
    faces with skewness > 4   (internal) or 20  (boundary) : 0
    faces with interpolation weights (0..1)  < 0.02        : 0
    faces with volume ratio of neighbour cells < 0.01      : 0
    faces with face twist < 0.02                           : 0
    faces on cells with determinant < 0.001                : 0

Iteration 1
Moving mesh using displacement scaling : min:0.75  max:1
Checking faces in error :
    non-orthogonality > 65  degrees                        : 0
    faces with face pyramid volume < 1e-13                 : 0
    faces with face-decomposition tet quality < 1e-30      : 28
    faces with concavity > 80  degrees                     : 0
    faces with skewness > 4   (internal) or 20  (boundary) : 0
    faces with interpolation weights (0..1)  < 0.02        : 0
    faces with volume ratio of neighbour cells < 0.01      : 0
    faces with face twist < 0.02                           : 8
    faces on cells with determinant < 0.001                : 0

Iteration 2
Moving mesh using displacement scaling : min:0.5625  max:1
Checking faces in error :
    non-orthogonality > 65  degrees                        : 0
    faces with face pyramid volume < 1e-13                 : 0
    faces with face-decomposition tet quality < 1e-30      : 24
    faces with concavity > 80  degrees                     : 0
    faces with skewness > 4   (internal) or 20  (boundary) : 0
    faces with interpolation weights (0..1)  < 0.02        : 0
    faces with volume ratio of neighbour cells < 0.01      : 0
    faces with face twist < 0.02                           : 0
    faces on cells with determinant < 0.001                : 0

Iteration 3
Moving mesh using displacement scaling : min:0.421875  max:1
Checking faces in error :
    non-orthogonality > 65  degrees                        : 0
    faces with face pyramid volume < 1e-13                 : 0
    faces with face-decomposition tet quality < 1e-30      : 18
    faces with concavity > 80  degrees                     : 0
    faces with skewness > 4   (internal) or 20  (boundary) : 0
    faces with interpolation weights (0..1)  < 0.02        : 0
    faces with volume ratio of neighbour cells < 0.01      : 0
    faces with face twist < 0.02                           : 4
    faces on cells with determinant < 0.001                : 0

Iteration 4
Moving mesh using displacement scaling : min:0.316406  max:1
Checking faces in error :
    non-orthogonality > 65  degrees                        : 0
    faces with face pyramid volume < 1e-13                 : 0
    faces with face-decomposition tet quality < 1e-30      : 18
    faces with concavity > 80  degrees                     : 0
    faces with skewness > 4   (internal) or 20  (boundary) : 0
    faces with interpolation weights (0..1)  < 0.02        : 0
    faces with volume ratio of neighbour cells < 0.01      : 0
    faces with face twist < 0.02                           : 0
    faces on cells with determinant < 0.001                : 0

Iteration 5
Displacement scaling for error reduction set to 0.
Moving mesh using displacement scaling : min:0.237305  max:1
Checking faces in error :
    non-orthogonality > 65  degrees                        : 0
    faces with face pyramid volume < 1e-13                 : 0
    faces with face-decomposition tet quality < 1e-30      : 18
    faces with concavity > 80  degrees                     : 0
    faces with skewness > 4   (internal) or 20  (boundary) : 0
    faces with interpolation weights (0..1)  < 0.02        : 0
    faces with volume ratio of neighbour cells < 0.01      : 0
    faces with face twist < 0.02                           : 0
    faces on cells with determinant < 0.001                : 0

Iteration 6
Moving mesh using displacement scaling : min:0  max:1
Checking faces in error :
    non-orthogonality > 65  degrees                        : 0
    faces with face pyramid volume < 1e-13                 : 0
    faces with face-decomposition tet quality < 1e-30      : 0
    faces with concavity > 80  degrees                     : 0
    faces with skewness > 4   (internal) or 20  (boundary) : 0
    faces with interpolation weights (0..1)  < 0.02        : 0
    faces with volume ratio of neighbour cells < 0.01      : 0
    faces with face twist < 0.02                           : 0
    faces on cells with determinant < 0.001                : 0
Successfully moved mesh
Moved mesh in = 4.09 s



Morph iteration 9
-----------------
Calculating patchDisplacement as distance to nearest surface point ...
Wanted displacement : average:0.000731008 min:0 max:0.0282638
Calculated surface displacement in = 0.05 s


Detecting near surfaces ...
Overriding nearest with intersection of close gaps at 0 out of 88201 points.
Overriding displacement on features :
   implicit features    : true
   explicit features    : false
   multi-patch features : false

Attraction:
     linear   : max:(0.0166131 -0.0228659 4.44089e-16) avg:(7.14423e-07 -4.81059e-07 5.36827e-05)
     feature  : max:(0.0673609 -0.0139979 -0) avg:(5.65751e-05 -6.13254e-05 6.0551e-05)
Feature analysis : total master points:88201 attraction to :
    feature point   : 0
    feature edge    : 3544
    nearest surface : 84657
    rest            : 0

--> FOAM Warning : Displacement (0.000383544 0.00136889 1.24345e-14) at mesh point 580 coord (22.1184 6.30459 6.24968) points through the surrounding patch faces
Smoothing displacement ...
Iteration 0
Iteration 10
Iteration 20
Displacement smoothed in = 1.01 s


Moving mesh ...

Iteration 0
Moving mesh using displacement scaling : min:1  max:1
Checking faces in error :
    non-orthogonality > 65  degrees                        : 0
    faces with face pyramid volume < 1e-13                 : 12
    faces with face-decomposition tet quality < 1e-30      : 114
    faces with concavity > 80  degrees                     : 0
    faces with skewness > 4   (internal) or 20  (boundary) : 0
    faces with interpolation weights (0..1)  < 0.02        : 0
    faces with volume ratio of neighbour cells < 0.01      : 0
    faces with face twist < 0.02                           : 0
    faces on cells with determinant < 0.001                : 0

Iteration 1
Moving mesh using displacement scaling : min:0.75  max:1
Checking faces in error :
    non-orthogonality > 65  degrees                        : 0
    faces with face pyramid volume < 1e-13                 : 12
    faces with face-decomposition tet quality < 1e-30      : 106
    faces with concavity > 80  degrees                     : 0
    faces with skewness > 4   (internal) or 20  (boundary) : 0
    faces with interpolation weights (0..1)  < 0.02        : 0
    faces with volume ratio of neighbour cells < 0.01      : 0
    faces with face twist < 0.02                           : 0
    faces on cells with determinant < 0.001                : 0

Iteration 2
Moving mesh using displacement scaling : min:0.5625  max:1
Checking faces in error :
    non-orthogonality > 65  degrees                        : 0
    faces with face pyramid volume < 1e-13                 : 4
    faces with face-decomposition tet quality < 1e-30      : 84
    faces with concavity > 80  degrees                     : 0
    faces with skewness > 4   (internal) or 20  (boundary) : 0
    faces with interpolation weights (0..1)  < 0.02        : 0
    faces with volume ratio of neighbour cells < 0.01      : 0
    faces with face twist < 0.02                           : 0
    faces on cells with determinant < 0.001                : 0

Iteration 3
Moving mesh using displacement scaling : min:0.421875  max:1
Checking faces in error :
    non-orthogonality > 65  degrees                        : 0
    faces with face pyramid volume < 1e-13                 : 0
    faces with face-decomposition tet quality < 1e-30      : 58
    faces with concavity > 80  degrees                     : 0
    faces with skewness > 4   (internal) or 20  (boundary) : 0
    faces with interpolation weights (0..1)  < 0.02        : 0
    faces with volume ratio of neighbour cells < 0.01      : 0
    faces with face twist < 0.02                           : 8
    faces on cells with determinant < 0.001                : 0

Iteration 4
Moving mesh using displacement scaling : min:0.316406  max:1
Checking faces in error :
    non-orthogonality > 65  degrees                        : 0
    faces with face pyramid volume < 1e-13                 : 0
    faces with face-decomposition tet quality < 1e-30      : 50
    faces with concavity > 80  degrees                     : 0
    faces with skewness > 4   (internal) or 20  (boundary) : 0
    faces with interpolation weights (0..1)  < 0.02        : 0
    faces with volume ratio of neighbour cells < 0.01      : 0
    faces with face twist < 0.02                           : 0
    faces on cells with determinant < 0.001                : 0

Iteration 5
Displacement scaling for error reduction set to 0.
Moving mesh using displacement scaling : min:0.237305  max:1
Checking faces in error :
    non-orthogonality > 65  degrees                        : 0
    faces with face pyramid volume < 1e-13                 : 0
    faces with face-decomposition tet quality < 1e-30      : 44
    faces with concavity > 80  degrees                     : 0
    faces with skewness > 4   (internal) or 20  (boundary) : 0
    faces with interpolation weights (0..1)  < 0.02        : 0
    faces with volume ratio of neighbour cells < 0.01      : 0
    faces with face twist < 0.02                           : 4
    faces on cells with determinant < 0.001                : 0

Iteration 6
Moving mesh using displacement scaling : min:0  max:1
Checking faces in error :
    non-orthogonality > 65  degrees                        : 0
    faces with face pyramid volume < 1e-13                 : 0
    faces with face-decomposition tet quality < 1e-30      : 0
    faces with concavity > 80  degrees                     : 0
    faces with skewness > 4   (internal) or 20  (boundary) : 0
    faces with interpolation weights (0..1)  < 0.02        : 0
    faces with volume ratio of neighbour cells < 0.01      : 0
    faces with face twist < 0.02                           : 0
    faces on cells with determinant < 0.001                : 0
Successfully moved mesh
Moved mesh in = 4.64 s


Repatching faces according to nearest surface ...
Repatched 0 faces in = 0.25 s


Edge intersection testing:
    Number of edges             : 1018466
    Number of edges to retest   : 347402
    Number of intersected edges : 85088
Merging 23082 sets of faces.

Edge intersection testing:
    Number of edges             : 994022
    Number of edges to retest   : 96544
    Number of intersected edges : 60644

Undo iteration 0
----------------
Checking faces in error :
    non-orthogonality > 65  degrees                        : 0
    faces with face pyramid volume < 1e-13                 : 0
    faces with face-decomposition tet quality < 1e-30      : 9
    faces with concavity > 80  degrees                     : 0
    faces with skewness > 4   (internal) or 20  (boundary) : 0
    faces with interpolation weights (0..1)  < 0.02        : 0
    faces with volume ratio of neighbour cells < 0.01      : 0
    faces with face twist < 0.02                           : 0
    faces on cells with determinant < 0.001                : 0
Masters that need to be restored:18
Edge intersection testing:
    Number of edges             : 994044
    Number of edges to retest   : 150
    Number of intersected edges : 60666


Undo iteration 1
----------------
Checking faces in error :
    non-orthogonality > 65  degrees                        : 0
    faces with face pyramid volume < 1e-13                 : 0
    faces with face-decomposition tet quality < 1e-30      : 0
    faces with concavity > 80  degrees                     : 0
    faces with skewness > 4   (internal) or 20  (boundary) : 0
    faces with interpolation weights (0..1)  < 0.02        : 0
    faces with volume ratio of neighbour cells < 0.01      : 0
    faces with face twist < 0.02                           : 0
    faces on cells with determinant < 0.001                : 0

Merging all points on surface that
- are used by only two boundary faces and
- make an angle with a cosine of more than 0.5.

Removing 22485 straight edge points ...

Edge intersection testing:
    Number of edges             : 994044
    Number of edges to retest   : 95425
    Number of intersected edges : 60666

Undo iteration 0
----------------
Checking faces in error :
    non-orthogonality > 65  degrees                        : 0
    faces with face pyramid volume < 1e-13                 : 0
    faces with face-decomposition tet quality < 1e-30      : 0
    faces with concavity > 80  degrees                     : 0
    faces with skewness > 4   (internal) or 20  (boundary) : 0
    faces with interpolation weights (0..1)  < 0.02        : 0
    faces with volume ratio of neighbour cells < 0.01      : 0
    faces with face twist < 0.02                           : 0
    faces on cells with determinant < 0.001                : 0
Snapped mesh : cells:303246  faces:994044  points:391433
Cells per refinement level:
    0	62300
    1	7073
    2	25085
    3	112848
    4	37920
    5	58020
Writing mesh to time constant
Wrote mesh in = 6.76 s.
Mesh snapped in = 44.12 s.
Checking final mesh ...
Checking faces in error :
    non-orthogonality > 65  degrees                        : 0
    faces with face pyramid volume < 1e-13                 : 0
    faces with face-decomposition tet quality < 1e-30      : 0
    faces with concavity > 80  degrees                     : 0
    faces with skewness > 4   (internal) or 20  (boundary) : 0
    faces with interpolation weights (0..1)  < 0.02        : 0
    faces with volume ratio of neighbour cells < 0.01      : 0
    faces with face twist < 0.02                           : 0
    faces on cells with determinant < 0.001                : 0
Finished meshing without any errors
Finished meshing in = 88.15 s.
End

