/*---------------------------------------------------------------------------*\
  =========                 |
  \\      /  F ield         | OpenFOAM: The Open Source CFD Toolbox
   \\    /   O peration     | Website:  https://openfoam.org
    \\  /    A nd           | Version:  7
     \\/     M anipulation  |
\*---------------------------------------------------------------------------*/
Build  : 7
Exec   : topoSet
Date   : Feb 25 2020
Time   : 11:43:23
Host   : "DESKTOP-G4K9PBL"
PID    : 1137
I/O    : uncollated
Case   : /home/xiaoyu/Workspace_xiaoyu/gitHub/simple_straight_nozzle_mold_flow/Mold_simple_flow/mold_ver_001
nProcs : 1
sigFpe : Enabling floating point exception trapping (FOAM_SIGFPE).
fileModificationChecking : Monitoring run-time modified files using timeStampMaster (fileModificationSkew 10)
allowSystemOperations : Allowing user-supplied system call operations

// * * * * * * * * * * * * * * * * * * * * * * * * * * * * * * * * * * * * * //
Create time

Create polyMesh for time = 0

Reading topoSetDict

Time = 0
    mesh not changed.
Created faceSet nozzlePatch
    Applying source patchToFace
    Adding all faces of patch mold ...
    Found matching patch mold with 60666 faces.
    faceSet nozzlePatch now size 60666
Created faceSet topPatch
    Applying source patchToFace
    Adding all faces of patch topPatch ...
    Found matching patch topPatch with 6612 faces.
    faceSet topPatch now size 6612
Created cellSet out_cylinder
    Applying source cylinderToCell
    Adding cells with centre within cylinder, with p1 = (30 30 0), p2 = (30 30 90) and radius = 30
    cellSet out_cylinder now size 82112
Created cellSet inner_cylinder
    Applying source cylinderToCell
    Adding cells with centre within cylinder, with p1 = (30 30 0), p2 = (30 30 90) and radius = 25
    cellSet inner_cylinder now size 81732
Created faceSet top_negative
    Applying source boxToFace
    Adding faces with centre within boxes 1((-50 -50 0.01) (110 110 1000))
    faceSet top_negative now size 987156
Created faceSet inletPatch
    Applying source cellToFace
    Adding faces according to cellSet inner_cylinder ...
    faceSet inletPatch now size 270660
Read set faceSet inletPatch with size 270660
    Applying source faceToFace
    Removing all faces from faceSet top_negative ...
    faceSet inletPatch now size 2640
Created faceSet topOutflowPatch
    Applying source faceToFace
    Adding all faces from faceSet topPatch ...
    faceSet topOutflowPatch now size 6612
Created faceSet out_cylinder
    Applying source cellToFace
    Adding faces according to cellSet out_cylinder ...
    faceSet out_cylinder now size 272212
Read set faceSet topOutflowPatch with size 6612
    Applying source faceToFace
    Removing all faces from faceSet out_cylinder ...
    faceSet topOutflowPatch now size 3952
End

