/*---------------------------------------------------------------------------*\
  =========                 |
  \\      /  F ield         | OpenFOAM: The Open Source CFD Toolbox
   \\    /   O peration     | Website:  https://openfoam.org
    \\  /    A nd           | Version:  7
     \\/     M anipulation  |
\*---------------------------------------------------------------------------*/
Build  : 7
Exec   : snappyHexMesh -overwrite
Date   : Feb 25 2020
Time   : 09:56:03
Host   : "DESKTOP-G4K9PBL"
PID    : 427
I/O    : uncollated
Case   : /home/xiaoyu/Workspace_xiaoyu/gitHub/simple_straight_nozzle_mold_flow/Mold_simple_flow/mold_ver_001
nProcs : 1
sigFpe : Enabling floating point exception trapping (FOAM_SIGFPE).
fileModificationChecking : Monitoring run-time modified files using timeStampMaster (fileModificationSkew 10)
allowSystemOperations : Allowing user-supplied system call operations

// * * * * * * * * * * * * * * * * * * * * * * * * * * * * * * * * * * * * * //
Create time

Create mesh for time = 0

Read mesh in = 0.21 s

Overall mesh bounding box  : (-50 -50 0) (110 110 1000)
Relative tolerance         : 1e-06
Absolute matching distance : 0.00102528

Reading refinement surfaces.
Read refinement surfaces in = 0.01 s

Reading refinement shells.
Read refinement shells in = 0 s

Setting refinement level of surface to be consistent with shells.
Checked shell refinement in = 0 s

Reading features.
Read features in = 0 s


Determining initial surface intersections
-----------------------------------------

Edge intersection testing:
    Number of edges             : 198800
    Number of edges to retest   : 198800
    Number of intersected edges : 696
Calculated surface intersections in = 0.17 s

Initial mesh : cells:64000  faces:198800  points:71001
Cells per refinement level:
    0	64000

Adding patches for surface regions
----------------------------------

Patch Type                Region                        
----- ----                ------                        
mold:

3     wall                mold                          

Added patches in = 0 s

 Foam::decompositionMethod::New 
{
    method          none;
    numberOfSubdomains 1;
}

Selecting decompositionMethod none
Layer thickness specified as final layer and expansion ratio.
--> FOAM Warning : 
    From function Foam::labelHashSet Foam::polyBoundaryMesh::patchSet(const Foam::UList<Foam::wordRe>&, bool, bool) const
    in file meshes/polyMesh/polyBoundaryMesh/polyBoundaryMesh.C at line 804
    Cannot find any patch or group names matching "(lowerWall|motorBike).*"
--> FOAM Warning : 
    From function Foam::layerParameters::layerParameters(const Foam::dictionary&, const Foam::polyBoundaryMesh&)
    in file snappyHexMeshDriver/layerParameters/layerParameters.C at line 279
    Reading "/home/xiaoyu/Workspace_xiaoyu/gitHub/simple_straight_nozzle_mold_flow/Mold_simple_flow/mold_ver_001/system/snappyHexMeshDict.addLayersControls.layers" from line 220 to line 220
    Layer specification for "(lowerWall|motorBike).*" does not match any patch.
Valid patches are 
4
(
movingWall
fixedWalls
frontAndBack
mold
)


Refinement phase
----------------

Found point (0.05 0.05 0.55) in cell 126 on processor 0

Surface refinement iteration 0
------------------------------

Marked for refinement due to surface intersection          : 740 cells.
Marked for refinement due to curvature/regions             : 0 cells.
Determined cells to refine in = 0.33 s
Selected for refinement : 740 cells (out of 64000)
Edge intersection testing:
    Number of edges             : 215732
    Number of edges to retest   : 21520
    Number of intersected edges : 3146
Refined mesh in = 0.18 s
After refinement surface refinement iteration 0 : cells:69180  faces:215732  points:77609
Cells per refinement level:
    0	63260
    1	5920

Surface refinement iteration 1
------------------------------

Marked for refinement due to surface intersection          : 3692 cells.
Marked for refinement due to curvature/regions             : 0 cells.
Determined cells to refine in = 0 s
Selected for refinement : 3880 cells (out of 69180)
Edge intersection testing:
    Number of edges             : 302312
    Number of edges to retest   : 107328
    Number of intersected edges : 12924
Refined mesh in = 0.25 s
After refinement surface refinement iteration 1 : cells:96340  faces:302312  points:109937
Cells per refinement level:
    0	63040
    1	4020
    2	29280

Surface refinement iteration 2
------------------------------

Marked for refinement due to surface intersection          : 124 cells.
Marked for refinement due to curvature/regions             : 1640 cells.
Determined cells to refine in = 0.01 s
Selected for refinement : 1828 cells (out of 96340)
Edge intersection testing:
    Number of edges             : 348848
    Number of edges to retest   : 73568
    Number of intersected edges : 18895
Refined mesh in = 0.31 s
After refinement surface refinement iteration 2 : cells:109136  faces:348848  points:131841
Cells per refinement level:
    0	63004
    1	4156
    2	28856
    3	13120

Surface refinement iteration 3
------------------------------

Marked for refinement due to surface intersection          : 8 cells.
Marked for refinement due to curvature/regions             : 1168 cells.
Determined cells to refine in = 0.03 s
Selected for refinement : 1588 cells (out of 109136)
Edge intersection testing:
    Number of edges             : 389342
    Number of edges to retest   : 60234
    Number of intersected edges : 24604
Refined mesh in = 0.38 s
After refinement surface refinement iteration 3 : cells:120252  faces:389342  points:150795
Cells per refinement level:
    0	62988
    1	4204
    2	28864
    3	17316
    4	6880

Surface refinement iteration 4
------------------------------

Marked for refinement due to surface intersection          : 0 cells.
Marked for refinement due to curvature/regions             : 1776 cells.
Determined cells to refine in = 0.04 s
Selected for refinement : 2676 cells (out of 120252)
Edge intersection testing:
    Number of edges             : 458288
    Number of edges to retest   : 109284
    Number of intersected edges : 33660
Refined mesh in = 0.44 s
After refinement surface refinement iteration 4 : cells:138984  faces:458288  points:183725
Cells per refinement level:
    0	62976
    1	4280
    2	28664
    3	19100
    4	14460
    5	9504

Surface refinement iteration 5
------------------------------

Marked for refinement due to surface intersection          : 0 cells.
Marked for refinement due to curvature/regions             : 1008 cells.
Determined cells to refine in = 0.07 s
Selected for refinement : 1612 cells (out of 138984)
Edge intersection testing:
    Number of edges             : 497840
    Number of edges to retest   : 87012
    Number of intersected edges : 39096
Refined mesh in = 0.4 s
After refinement surface refinement iteration 5 : cells:150268  faces:497840  points:201197
Cells per refinement level:
    0	62964
    1	4320
    2	28896
    3	20372
    4	17236
    5	16480

Surface refinement iteration 6
------------------------------

Marked for refinement due to surface intersection          : 0 cells.
Marked for refinement due to curvature/regions             : 504 cells.
Determined cells to refine in = 0.08 s
Selected for refinement : 736 cells (out of 150268)
Edge intersection testing:
    Number of edges             : 515198
    Number of edges to retest   : 47036
    Number of intersected edges : 41292
Refined mesh in = 0.4 s
After refinement surface refinement iteration 6 : cells:155420  faces:515198  points:208311
Cells per refinement level:
    0	62964
    1	4312
    2	28900
    3	20640
    4	18476
    5	20128

Surface refinement iteration 7
------------------------------

Marked for refinement due to surface intersection          : 0 cells.
Marked for refinement due to curvature/regions             : 260 cells.
Determined cells to refine in = 0.08 s
Selected for refinement : 324 cells (out of 155420)
Edge intersection testing:
    Number of edges             : 522686
    Number of edges to retest   : 24934
    Number of intersected edges : 42120
Refined mesh in = 0.41 s
After refinement surface refinement iteration 7 : cells:157688  faces:522686  points:211239
Cells per refinement level:
    0	62964
    1	4312
    2	28896
    3	20612
    4	18696
    5	22208

Surface refinement iteration 8
------------------------------

Marked for refinement due to surface intersection          : 0 cells.
Marked for refinement due to curvature/regions             : 96 cells.
Determined cells to refine in = 0.06 s
Selected for refinement : 104 cells (out of 157688)
Edge intersection testing:
    Number of edges             : 525194
    Number of edges to retest   : 8580
    Number of intersected edges : 42436
Refined mesh in = 0.46 s
After refinement surface refinement iteration 8 : cells:158416  faces:525194  points:212263
Cells per refinement level:
    0	62964
    1	4312
    2	28896
    3	20604
    4	18664
    5	22976

Surface refinement iteration 9
------------------------------

Marked for refinement due to surface intersection          : 0 cells.
Marked for refinement due to curvature/regions             : 40 cells.
Determined cells to refine in = 0.06 s
Selected for refinement : 44 cells (out of 158416)
Edge intersection testing:
    Number of edges             : 526190
    Number of edges to retest   : 3998
    Number of intersected edges : 42540
Refined mesh in = 0.41 s
After refinement surface refinement iteration 9 : cells:158724  faces:526190  points:212635
Cells per refinement level:
    0	62964
    1	4312
    2	28896
    3	20600
    4	18656
    5	23296

Surface refinement iteration 10
------------------------------

Marked for refinement due to surface intersection          : 0 cells.
Marked for refinement due to curvature/regions             : 0 cells.
Determined cells to refine in = 0.06 s
Selected for refinement : 0 cells (out of 158724)
Stopping refining since too few cells selected.


Removing mesh beyond surface intersections
------------------------------------------

Found point (0.05 0.05 0.55) in global region 0 out of 2 regions.
Keeping all cells in region 0 containing point (0.05 0.05 0.55)
Selected for keeping : 144692 cells.
Edge intersection testing:
    Number of edges             : 501714
    Number of edges to retest   : 37040
    Number of intersected edges : 42540

Shell refinement iteration 0
----------------------------

Marked for refinement due to distance to explicit features : 0 cells.
Marked for refinement due to refinement shells             : 0 cells.
Determined cells to refine in = 2.47 s
Selected for internal refinement : 13556 cells (out of 144692)
Edge intersection testing:
    Number of edges             : 807906
    Number of edges to retest   : 533193
    Number of intersected edges : 55937
Refined mesh in = 0.95 s
After refinement shell refinement iteration 0 : cells:239584  faces:807906  points:326621
Cells per refinement level:
    0	62640
    1	5581
    2	36808
    3	20883
    4	41424
    5	72248

Shell refinement iteration 1
----------------------------

Marked for refinement due to distance to explicit features : 0 cells.
Marked for refinement due to refinement shells             : 0 cells.
Determined cells to refine in = 0.16 s
Selected for internal refinement : 5607 cells (out of 239584)
Edge intersection testing:
    Number of edges             : 931992
    Number of edges to retest   : 365944
    Number of intersected edges : 62365
Refined mesh in = 1.04 s
After refinement shell refinement iteration 1 : cells:278833  faces:931992  points:372329
Cells per refinement level:
    0	62468
    1	6811
    2	37037
    3	26895
    4	50574
    5	95048

Shell refinement iteration 2
----------------------------

Marked for refinement due to distance to explicit features : 0 cells.
Marked for refinement due to refinement shells             : 0 cells.
Determined cells to refine in = 0.19 s
Selected for internal refinement : 1212 cells (out of 278833)
Edge intersection testing:
    Number of edges             : 958815
    Number of edges to retest   : 95842
    Number of intersected edges : 63974
Refined mesh in = 0.91 s
After refinement shell refinement iteration 2 : cells:287317  faces:958815  points:382149
Cells per refinement level:
    0	62400
    1	7260
    2	37462
    3	29227
    4	52992
    5	97976

Shell refinement iteration 3
----------------------------

Marked for refinement due to distance to explicit features : 0 cells.
Marked for refinement due to refinement shells             : 0 cells.
Determined cells to refine in = 0.23 s
Selected for internal refinement : 425 cells (out of 287317)
Edge intersection testing:
    Number of edges             : 968049
    Number of edges to retest   : 30986
    Number of intersected edges : 64487
Refined mesh in = 0.79 s
After refinement shell refinement iteration 3 : cells:290292  faces:968049  points:385393
Cells per refinement level:
    0	62388
    1	7320
    2	37499
    3	31209
    4	53100
    5	98776

Shell refinement iteration 4
----------------------------

Marked for refinement due to distance to explicit features : 0 cells.
Marked for refinement due to refinement shells             : 0 cells.
Determined cells to refine in = 0.19 s
Selected for internal refinement : 258 cells (out of 290292)
Edge intersection testing:
    Number of edges             : 973668
    Number of edges to retest   : 18059
    Number of intersected edges : 64880
Refined mesh in = 0.87 s
After refinement shell refinement iteration 4 : cells:292098  faces:973668  points:387388
Cells per refinement level:
    0	62388
    1	7315
    2	37334
    3	32845
    4	53088
    5	99128

Shell refinement iteration 5
----------------------------

Marked for refinement due to distance to explicit features : 0 cells.
Marked for refinement due to refinement shells             : 0 cells.
Determined cells to refine in = 0.2 s
Selected for internal refinement : 267 cells (out of 292098)
Edge intersection testing:
    Number of edges             : 979491
    Number of edges to retest   : 17730
    Number of intersected edges : 65357
Refined mesh in = 0.73 s
After refinement shell refinement iteration 5 : cells:293967  faces:979491  points:389455
Cells per refinement level:
    0	62388
    1	7288
    2	37318
    3	34701
    4	53080
    5	99192

Shell refinement iteration 6
----------------------------

Marked for refinement due to distance to explicit features : 0 cells.
Marked for refinement due to refinement shells             : 0 cells.
Determined cells to refine in = 0.22 s
Selected for internal refinement : 212 cells (out of 293967)
Edge intersection testing:
    Number of edges             : 984147
    Number of edges to retest   : 14561
    Number of intersected edges : 65714
Refined mesh in = 0.73 s
After refinement shell refinement iteration 6 : cells:295451  faces:984147  points:391138
Cells per refinement level:
    0	62388
    1	7281
    2	37169
    3	36341
    4	53080
    5	99192

Shell refinement iteration 7
----------------------------

Marked for refinement due to distance to explicit features : 0 cells.
Marked for refinement due to refinement shells             : 0 cells.
Determined cells to refine in = 0.23 s
Selected for internal refinement : 240 cells (out of 295451)
Edge intersection testing:
    Number of edges             : 989376
    Number of edges to retest   : 16267
    Number of intersected edges : 66155
Refined mesh in = 0.76 s
After refinement shell refinement iteration 7 : cells:297131  faces:989376  points:392993
Cells per refinement level:
    0	62388
    1	7256
    2	37154
    3	38061
    4	53080
    5	99192

Shell refinement iteration 8
----------------------------

Marked for refinement due to distance to explicit features : 0 cells.
Marked for refinement due to refinement shells             : 0 cells.
Determined cells to refine in = 0.22 s
Selected for internal refinement : 210 cells (out of 297131)
Edge intersection testing:
    Number of edges             : 993987
    Number of edges to retest   : 14480
    Number of intersected edges : 66524
Refined mesh in = 0.81 s
After refinement shell refinement iteration 8 : cells:298601  faces:993987  points:394660
Cells per refinement level:
    0	62388
    1	7251
    2	36989
    3	39701
    4	53080
    5	99192

Shell refinement iteration 9
----------------------------

Marked for refinement due to distance to explicit features : 0 cells.
Marked for refinement due to refinement shells             : 0 cells.
Determined cells to refine in = 0.22 s
Selected for internal refinement : 259 cells (out of 298601)
Edge intersection testing:
    Number of edges             : 999642
    Number of edges to retest   : 17209
    Number of intersected edges : 66989
Refined mesh in = 0.78 s
After refinement shell refinement iteration 9 : cells:300414  faces:999642  points:396673
Cells per refinement level:
    0	62388
    1	7224
    2	36973
    3	41557
    4	53080
    5	99192

Shell refinement iteration 10
----------------------------

Marked for refinement due to distance to explicit features : 0 cells.
Marked for refinement due to refinement shells             : 0 cells.
Determined cells to refine in = 0.21 s
Selected for internal refinement : 212 cells (out of 300414)
Edge intersection testing:
    Number of edges             : 1004298
    Number of edges to retest   : 14561
    Number of intersected edges : 67346
Refined mesh in = 0.78 s
After refinement shell refinement iteration 10 : cells:301898  faces:1004298  points:398356
Cells per refinement level:
    0	62388
    1	7217
    2	36824
    3	43197
    4	53080
    5	99192

Shell refinement iteration 11
----------------------------

Marked for refinement due to distance to explicit features : 0 cells.
Marked for refinement due to refinement shells             : 0 cells.
Determined cells to refine in = 0.21 s
Selected for internal refinement : 240 cells (out of 301898)
Edge intersection testing:
    Number of edges             : 1009527
    Number of edges to retest   : 16267
    Number of intersected edges : 67787
Refined mesh in = 0.79 s
After refinement shell refinement iteration 11 : cells:303578  faces:1009527  points:400211
Cells per refinement level:
    0	62388
    1	7192
    2	36809
    3	44917
    4	53080
    5	99192

Shell refinement iteration 12
----------------------------

Marked for refinement due to distance to explicit features : 0 cells.
Marked for refinement due to refinement shells             : 0 cells.
Determined cells to refine in = 0.21 s
Selected for internal refinement : 210 cells (out of 303578)
Edge intersection testing:
    Number of edges             : 1014138
    Number of edges to retest   : 14480
    Number of intersected edges : 68156
Refined mesh in = 0.78 s
After refinement shell refinement iteration 12 : cells:305048  faces:1014138  points:401878
Cells per refinement level:
    0	62388
    1	7187
    2	36644
    3	46557
    4	53080
    5	99192

Shell refinement iteration 13
----------------------------

Marked for refinement due to distance to explicit features : 0 cells.
Marked for refinement due to refinement shells             : 0 cells.
Determined cells to refine in = 0.22 s
Selected for internal refinement : 259 cells (out of 305048)
Edge intersection testing:
    Number of edges             : 1019793
    Number of edges to retest   : 17209
    Number of intersected edges : 68621
Refined mesh in = 0.81 s
After refinement shell refinement iteration 13 : cells:306861  faces:1019793  points:403891
Cells per refinement level:
    0	62388
    1	7160
    2	36628
    3	48413
    4	53080
    5	99192

Shell refinement iteration 14
----------------------------

Marked for refinement due to distance to explicit features : 0 cells.
Marked for refinement due to refinement shells             : 0 cells.
Determined cells to refine in = 0.22 s
Selected for internal refinement : 212 cells (out of 306861)
Edge intersection testing:
    Number of edges             : 1024449
    Number of edges to retest   : 14561
    Number of intersected edges : 68978
Refined mesh in = 0.78 s
After refinement shell refinement iteration 14 : cells:308345  faces:1024449  points:405574
Cells per refinement level:
    0	62388
    1	7153
    2	36479
    3	50053
    4	53080
    5	99192

Shell refinement iteration 15
----------------------------

Marked for refinement due to distance to explicit features : 0 cells.
Marked for refinement due to refinement shells             : 0 cells.
Determined cells to refine in = 0.23 s
Selected for internal refinement : 240 cells (out of 308345)
Edge intersection testing:
    Number of edges             : 1029678
    Number of edges to retest   : 16267
    Number of intersected edges : 69419
Refined mesh in = 0.81 s
After refinement shell refinement iteration 15 : cells:310025  faces:1029678  points:407429
Cells per refinement level:
    0	62388
    1	7128
    2	36464
    3	51773
    4	53080
    5	99192

Shell refinement iteration 16
----------------------------

Marked for refinement due to distance to explicit features : 0 cells.
Marked for refinement due to refinement shells             : 0 cells.
Determined cells to refine in = 0.21 s
Selected for internal refinement : 210 cells (out of 310025)
Edge intersection testing:
    Number of edges             : 1034289
    Number of edges to retest   : 14480
    Number of intersected edges : 69788
Refined mesh in = 0.82 s
After refinement shell refinement iteration 16 : cells:311495  faces:1034289  points:409096
Cells per refinement level:
    0	62388
    1	7123
    2	36299
    3	53413
    4	53080
    5	99192

Shell refinement iteration 17
----------------------------

Marked for refinement due to distance to explicit features : 0 cells.
Marked for refinement due to refinement shells             : 0 cells.
Determined cells to refine in = 0.23 s
Selected for internal refinement : 259 cells (out of 311495)
Edge intersection testing:
    Number of edges             : 1039944
    Number of edges to retest   : 17209
    Number of intersected edges : 70253
Refined mesh in = 0.85 s
After refinement shell refinement iteration 17 : cells:313308  faces:1039944  points:411109
Cells per refinement level:
    0	62388
    1	7096
    2	36283
    3	55269
    4	53080
    5	99192

Shell refinement iteration 18
----------------------------

Marked for refinement due to distance to explicit features : 0 cells.
Marked for refinement due to refinement shells             : 0 cells.
Determined cells to refine in = 0.22 s
Selected for internal refinement : 212 cells (out of 313308)
Edge intersection testing:
    Number of edges             : 1044600
    Number of edges to retest   : 14561
    Number of intersected edges : 70610
Refined mesh in = 0.81 s
After refinement shell refinement iteration 18 : cells:314792  faces:1044600  points:412792
Cells per refinement level:
    0	62388
    1	7089
    2	36134
    3	56909
    4	53080
    5	99192

Shell refinement iteration 19
----------------------------

Marked for refinement due to distance to explicit features : 0 cells.
Marked for refinement due to refinement shells             : 0 cells.
Determined cells to refine in = 0.22 s
Selected for internal refinement : 240 cells (out of 314792)
Edge intersection testing:
    Number of edges             : 1049829
    Number of edges to retest   : 16267
    Number of intersected edges : 71051
Refined mesh in = 0.81 s
After refinement shell refinement iteration 19 : cells:316472  faces:1049829  points:414647
Cells per refinement level:
    0	62388
    1	7064
    2	36119
    3	58629
    4	53080
    5	99192

Shell refinement iteration 20
----------------------------

Marked for refinement due to distance to explicit features : 0 cells.
Marked for refinement due to refinement shells             : 0 cells.
Determined cells to refine in = 0.22 s
Selected for internal refinement : 210 cells (out of 316472)
Edge intersection testing:
    Number of edges             : 1054440
    Number of edges to retest   : 14480
    Number of intersected edges : 71420
Refined mesh in = 0.84 s
After refinement shell refinement iteration 20 : cells:317942  faces:1054440  points:416314
Cells per refinement level:
    0	62388
    1	7059
    2	35954
    3	60269
    4	53080
    5	99192

Shell refinement iteration 21
----------------------------

Marked for refinement due to distance to explicit features : 0 cells.
Marked for refinement due to refinement shells             : 0 cells.
Determined cells to refine in = 0.23 s
Selected for internal refinement : 259 cells (out of 317942)
Edge intersection testing:
    Number of edges             : 1060095
    Number of edges to retest   : 17209
    Number of intersected edges : 71885
Refined mesh in = 0.82 s
After refinement shell refinement iteration 21 : cells:319755  faces:1060095  points:418327
Cells per refinement level:
    0	62388
    1	7032
    2	35938
    3	62125
    4	53080
    5	99192

Shell refinement iteration 22
----------------------------

Marked for refinement due to distance to explicit features : 0 cells.
Marked for refinement due to refinement shells             : 0 cells.
Determined cells to refine in = 0.22 s
Selected for internal refinement : 212 cells (out of 319755)
Edge intersection testing:
    Number of edges             : 1064751
    Number of edges to retest   : 14561
    Number of intersected edges : 72242
Refined mesh in = 0.85 s
After refinement shell refinement iteration 22 : cells:321239  faces:1064751  points:420010
Cells per refinement level:
    0	62388
    1	7025
    2	35789
    3	63765
    4	53080
    5	99192

Shell refinement iteration 23
----------------------------

Marked for refinement due to distance to explicit features : 0 cells.
Marked for refinement due to refinement shells             : 0 cells.
Determined cells to refine in = 0.24 s
Selected for internal refinement : 240 cells (out of 321239)
Edge intersection testing:
    Number of edges             : 1069980
    Number of edges to retest   : 16267
    Number of intersected edges : 72683
Refined mesh in = 0.85 s
After refinement shell refinement iteration 23 : cells:322919  faces:1069980  points:421865
Cells per refinement level:
    0	62388
    1	7000
    2	35774
    3	65485
    4	53080
    5	99192

Shell refinement iteration 24
----------------------------

Marked for refinement due to distance to explicit features : 0 cells.
Marked for refinement due to refinement shells             : 0 cells.
Determined cells to refine in = 0.23 s
Selected for internal refinement : 210 cells (out of 322919)
Edge intersection testing:
    Number of edges             : 1074591
    Number of edges to retest   : 14480
    Number of intersected edges : 73052
Refined mesh in = 0.85 s
After refinement shell refinement iteration 24 : cells:324389  faces:1074591  points:423532
Cells per refinement level:
    0	62388
    1	6995
    2	35609
    3	67125
    4	53080
    5	99192

Shell refinement iteration 25
----------------------------

Marked for refinement due to distance to explicit features : 0 cells.
Marked for refinement due to refinement shells             : 0 cells.
Determined cells to refine in = 0.23 s
Selected for internal refinement : 259 cells (out of 324389)
Edge intersection testing:
    Number of edges             : 1080246
    Number of edges to retest   : 17035
    Number of intersected edges : 73517
Refined mesh in = 0.86 s
After refinement shell refinement iteration 25 : cells:326202  faces:1080246  points:425545
Cells per refinement level:
    0	62388
    1	6968
    2	35593
    3	68981
    4	53080
    5	99192

Shell refinement iteration 26
----------------------------

Marked for refinement due to distance to explicit features : 0 cells.
Marked for refinement due to refinement shells             : 0 cells.
Determined cells to refine in = 0.23 s
Selected for internal refinement : 212 cells (out of 326202)
Edge intersection testing:
    Number of edges             : 1084809
    Number of edges to retest   : 13717
    Number of intersected edges : 73818
Refined mesh in = 0.88 s
After refinement shell refinement iteration 26 : cells:327686  faces:1084809  points:427104
Cells per refinement level:
    0	62388
    1	6961
    2	35444
    3	70621
    4	53080
    5	99192

Shell refinement iteration 27
----------------------------

Marked for refinement due to distance to explicit features : 0 cells.
Marked for refinement due to refinement shells             : 0 cells.
Determined cells to refine in = 0.23 s
Selected for internal refinement : 141 cells (out of 327686)
Edge intersection testing:
    Number of edges             : 1087509
    Number of edges to retest   : 10325
    Number of intersected edges : 73948
Refined mesh in = 0.86 s
After refinement shell refinement iteration 27 : cells:328673  faces:1087509  points:427821
Cells per refinement level:
    0	62388
    1	6948
    2	35420
    3	71645
    4	53080
    5	99192

Shell refinement iteration 28
----------------------------

Marked for refinement due to distance to explicit features : 0 cells.
Marked for refinement due to refinement shells             : 0 cells.
Determined cells to refine in = 0.22 s
Selected for internal refinement : 14 cells (out of 328673)
Edge intersection testing:
    Number of edges             : 1087755
    Number of edges to retest   : 1356
    Number of intersected edges : 73966
Refined mesh in = 0.84 s
After refinement shell refinement iteration 28 : cells:328771  faces:1087755  points:427873
Cells per refinement level:
    0	62388
    1	6944
    2	35442
    3	71725
    4	53080
    5	99192

Shell refinement iteration 29
----------------------------

Marked for refinement due to distance to explicit features : 0 cells.
Marked for refinement due to refinement shells             : 0 cells.
Determined cells to refine in = 0.24 s
Selected for internal refinement : 0 cells (out of 328771)
Stopping refining since too few cells selected.


Dangling coarse cells refinement iteration 0
--------------------------------------------

Determined cells to refine in = 0.01 s
Selected for refinement : 26 cells (out of 328771)
Edge intersection testing:
    Number of edges             : 1088145
    Number of edges to retest   : 2844
    Number of intersected edges : 73966
Refined mesh in = 0.86 s
After refinement coarse cell refinement iteration 0 : cells:328953  faces:1088145  points:427925
Cells per refinement level:
    0	62388
    1	6944
    2	35436
    3	71753
    4	53240
    5	99192

Dangling coarse cells refinement iteration 1
--------------------------------------------

Determined cells to refine in = 0.02 s
Selected for refinement : 0 cells (out of 328953)
Stopping refining since too few cells selected.


Dangling coarse cells refinement iteration 0
--------------------------------------------

Determined cells to refine in = 0 s
Selected for refinement : 0 cells (out of 328953)
Stopping refining since too few cells selected.


Splitting mesh at surface intersections
---------------------------------------

Introducing baffles for 73966 faces that are intersected by the surface.

Edge intersection testing:
    Number of edges             : 1154631
    Number of edges to retest   : 445423
    Number of intersected edges : 135036
Created baffles in = 0.92 s


After introducing baffles : cells:328953  faces:1154631  points:427925
Cells per refinement level:
    0	62388
    1	6944
    2	35436
    3	71753
    4	53240
    5	99192

Introducing baffles to block off problem cells
----------------------------------------------

markFacesOnProblemCells : marked 41136 additional internal faces to be converted into baffles.
Analyzed problem cells in = 0.66 s


Introducing baffles to delete problem cells.

Edge intersection testing:
    Number of edges             : 1195767
    Number of edges to retest   : 185020
    Number of intersected edges : 135037
Created baffles in = 0.84 s


After introducing baffles : cells:328953  faces:1195767  points:427925
Cells per refinement level:
    0	62388
    1	6944
    2	35436
    3	71753
    4	53240
    5	99192

Remove unreachable sections of mesh
-----------------------------------

Keeping all cells in region 0 containing point (0.05 0.05 0.55)
Selected for keeping : 227550 cells.
Edge intersection testing:
    Number of edges             : 773772
    Number of edges to retest   : 0
    Number of intersected edges : 64470
Split mesh in = 4.75 s


After subsetting : cells:227550  faces:773772  points:322840
Cells per refinement level:
    0	62388
    1	6944
    2	29242
    3	36636
    4	36136
    5	56204

Handling cells with snap problems
---------------------------------

Introducing baffles for 64470 faces that are intersected by the surface.

Edge intersection testing:
    Number of edges             : 773772
    Number of edges to retest   : 208461
    Number of intersected edges : 64470
Created baffles in = 0.55 s


After introducing baffles : cells:227550  faces:773772  points:322840
Cells per refinement level:
    0	62388
    1	6944
    2	29242
    3	36636
    4	36136
    5	56204

Introducing baffles to block off problem cells
----------------------------------------------

markFacesOnProblemCells : marked 0 additional internal faces to be converted into baffles.
Analyzed problem cells in = 0.41 s


Introducing baffles to delete problem cells.

Edge intersection testing:
    Number of edges             : 773772
    Number of edges to retest   : 0
    Number of intersected edges : 64470
Created baffles in = 0.48 s


After introducing baffles : cells:227550  faces:773772  points:322840
Cells per refinement level:
    0	62388
    1	6944
    2	29242
    3	36636
    4	36136
    5	56204

Remove unreachable sections of mesh
-----------------------------------

Keeping all cells in region 0 containing point (0.05 0.05 0.55)
Selected for keeping : 227550 cells.
Edge intersection testing:
    Number of edges             : 773772
    Number of edges to retest   : 0
    Number of intersected edges : 64470
Split mesh in = 3.08 s


After subsetting : cells:227550  faces:773772  points:322840
Cells per refinement level:
    0	62388
    1	6944
    2	29242
    3	36636
    4	36136
    5	56204

Merge free-standing baffles
---------------------------

freeStandingBaffles : detected 0 free-standing baffles out of 0

Detected free-standing baffles : 0
Merged free-standing baffles in = 0.23 s


dupNonManifoldPoints : Found : 0 non-manifold points (out of 322840)
Edge intersection testing:
    Number of edges             : 773772
    Number of edges to retest   : 0
    Number of intersected edges : 64470
Detected unsplittable baffles : 0

Merge refined boundary faces
----------------------------

Merging 2536 sets of faces.

Edge intersection testing:
    Number of edges             : 770232
    Number of edges to retest   : 17458
    Number of intersected edges : 60934

Undo iteration 0
----------------
Checking faces in error :
    non-orthogonality > 65  degrees                        : 0
    faces with face pyramid volume < 1e-13                 : 0
    faces with face-decomposition tet quality < 1e-30      : 0
    faces with concavity > 80  degrees                     : 0
    faces with skewness > 4   (internal) or 20  (boundary) : 0
    faces with interpolation weights (0..1)  < 0.02        : 0
    faces with volume ratio of neighbour cells < 0.01      : 0
    faces with face twist < 0.02                           : 0
    faces on cells with determinant < 0.001                : 0

Merging all points on surface that
- are used by only two boundary faces and
- make an angle with a cosine of more than 0.707107.

Removing 2870 straight edge points ...

Edge intersection testing:
    Number of edges             : 770232
    Number of edges to retest   : 19006
    Number of intersected edges : 60934

Undo iteration 0
----------------
Checking faces in error :
    non-orthogonality > 65  degrees                        : 0
    faces with face pyramid volume < 1e-13                 : 0
    faces with face-decomposition tet quality < 1e-30      : 0
    faces with concavity > 80  degrees                     : 0
    faces with skewness > 4   (internal) or 20  (boundary) : 0
    faces with interpolation weights (0..1)  < 0.02        : 0
    faces with volume ratio of neighbour cells < 0.01      : 0
    faces with face twist < 0.02                           : 0
    faces on cells with determinant < 0.001                : 0
Refined mesh : cells:227550  faces:770232  points:319468
Cells per refinement level:
    0	62388
    1	6944
    2	29242
    3	36636
    4	36136
    5	56204
Writing mesh to time constant
Wrote mesh in = 3.97 s.
Mesh refined in = 54.1 s.

Morphing phase
--------------


Snapping to features in 10 iterations ...
Constructing mesh displacer ...
Using mesh parameters 
{
    maxNonOrtho     65;
    maxBoundarySkewness 20;
    maxInternalSkewness 4;
    maxConcave      80;
    minFlatness     0.5;
    minVol          1e-13;
    minTetQuality   1e-30;
    minArea         -1;
    minTwist        0.02;
    minDeterminant  0.001;
    minFaceWeight   0.02;
    minVolRatio     0.01;
    minTriangleTwist -1;
    nSmoothScale    4;
    errorReduction  0.75;
}


Checking initial mesh ...
Checking faces in error :
    non-orthogonality > 65  degrees                        : 0
    faces with face pyramid volume < 1e-13                 : 0
    faces with face-decomposition tet quality < 1e-30      : 0
    faces with concavity > 80  degrees                     : 0
    faces with skewness > 4   (internal) or 20  (boundary) : 0
    faces with interpolation weights (0..1)  < 0.02        : 0
    faces with volume ratio of neighbour cells < 0.01      : 0
    faces with face twist < 0.02                           : 0
    faces on cells with determinant < 0.001                : 0
Detected 0 illegal faces (concave, zero area or negative cell pyramid volume)
Checked initial mesh in = 0.82 s


Smoothing patch points ...
Smoothing iteration 0
Found 0 non-manifold point(s).

Scaling iteration 0
Moving mesh using displacement scaling : min:1  max:1
Correcting 2-D mesh motion--> FOAM Warning : 
    From function void Foam::twoDPointCorrector::calcAddressing() const
    in file twoDPointCorrector/twoDPointCorrector.C at line 160
    The number of points in the mesh is not equal to twice the number of edges normal to the plane - this may be OK only for wedge geometries.
    Please check the geometry or adjust the orthogonality tolerance.

Number of normal edges: 295343 number of points: 319468
 ...done
Checking faces in error :
    non-orthogonality > 65  degrees                        : 0
    faces with face pyramid volume < 1e-13                 : 0
    faces with face-decomposition tet quality < 1e-30      : 0
    faces with concavity > 80  degrees                     : 0
    faces with skewness > 4   (internal) or 20  (boundary) : 0
    faces with interpolation weights (0..1)  < 0.02        : 0
    faces with volume ratio of neighbour cells < 0.01      : 0
    faces with face twist < 0.02                           : 0
    faces on cells with determinant < 0.001                : 0
Successfully moved mesh

Smoothing iteration 1
Found 0 non-manifold point(s).

Scaling iteration 0
Moving mesh using displacement scaling : min:1  max:1
Correcting 2-D mesh motion ...done
Checking faces in error :
    non-orthogonality > 65  degrees                        : 0
    faces with face pyramid volume < 1e-13                 : 0
    faces with face-decomposition tet quality < 1e-30      : 0
    faces with concavity > 80  degrees                     : 0
    faces with skewness > 4   (internal) or 20  (boundary) : 0
    faces with interpolation weights (0..1)  < 0.02        : 0
    faces with volume ratio of neighbour cells < 0.01      : 0
    faces with face twist < 0.02                           : 0
    faces on cells with determinant < 0.001                : 0
Successfully moved mesh

Smoothing iteration 2
Found 0 non-manifold point(s).

Scaling iteration 0
Moving mesh using displacement scaling : min:1  max:1
Correcting 2-D mesh motion ...done
Checking faces in error :
    non-orthogonality > 65  degrees                        : 0
    faces with face pyramid volume < 1e-13                 : 0
    faces with face-decomposition tet quality < 1e-30      : 52
    faces with concavity > 80  degrees                     : 0
    faces with skewness > 4   (internal) or 20  (boundary) : 0
    faces with interpolation weights (0..1)  < 0.02        : 0
    faces with volume ratio of neighbour cells < 0.01      : 0
    faces with face twist < 0.02                           : 0
    faces on cells with determinant < 0.001                : 0

Scaling iteration 1
Moving mesh using displacement scaling : min:0.75  max:1
Correcting 2-D mesh motion ...done
Checking faces in error :
    non-orthogonality > 65  degrees                        : 0
    faces with face pyramid volume < 1e-13                 : 0
    faces with face-decomposition tet quality < 1e-30      : 36
    faces with concavity > 80  degrees                     : 0
    faces with skewness > 4   (internal) or 20  (boundary) : 0
    faces with interpolation weights (0..1)  < 0.02        : 0
    faces with volume ratio of neighbour cells < 0.01      : 0
    faces with face twist < 0.02                           : 0
    faces on cells with determinant < 0.001                : 0

Scaling iteration 2
Moving mesh using displacement scaling : min:0.5625  max:1
Correcting 2-D mesh motion ...done
Checking faces in error :
    non-orthogonality > 65  degrees                        : 0
    faces with face pyramid volume < 1e-13                 : 0
    faces with face-decomposition tet quality < 1e-30      : 22
    faces with concavity > 80  degrees                     : 0
    faces with skewness > 4   (internal) or 20  (boundary) : 0
    faces with interpolation weights (0..1)  < 0.02        : 0
    faces with volume ratio of neighbour cells < 0.01      : 0
    faces with face twist < 0.02                           : 0
    faces on cells with determinant < 0.001                : 0

Scaling iteration 3
Moving mesh using displacement scaling : min:0.421875  max:1
Correcting 2-D mesh motion ...done
Checking faces in error :
    non-orthogonality > 65  degrees                        : 0
    faces with face pyramid volume < 1e-13                 : 0
    faces with face-decomposition tet quality < 1e-30      : 11
    faces with concavity > 80  degrees                     : 0
    faces with skewness > 4   (internal) or 20  (boundary) : 0
    faces with interpolation weights (0..1)  < 0.02        : 0
    faces with volume ratio of neighbour cells < 0.01      : 0
    faces with face twist < 0.02                           : 0
    faces on cells with determinant < 0.001                : 0

Scaling iteration 4
Moving mesh using displacement scaling : min:0.316406  max:1
Correcting 2-D mesh motion ...done
Checking faces in error :
    non-orthogonality > 65  degrees                        : 0
    faces with face pyramid volume < 1e-13                 : 0
    faces with face-decomposition tet quality < 1e-30      : 6
    faces with concavity > 80  degrees                     : 0
    faces with skewness > 4   (internal) or 20  (boundary) : 0
    faces with interpolation weights (0..1)  < 0.02        : 0
    faces with volume ratio of neighbour cells < 0.01      : 0
    faces with face twist < 0.02                           : 0
    faces on cells with determinant < 0.001                : 0

Scaling iteration 5
Displacement scaling for error reduction set to 0.
Moving mesh using displacement scaling : min:0.237305  max:1
Correcting 2-D mesh motion ...done
Checking faces in error :
    non-orthogonality > 65  degrees                        : 0
    faces with face pyramid volume < 1e-13                 : 0
    faces with face-decomposition tet quality < 1e-30      : 4
    faces with concavity > 80  degrees                     : 0
    faces with skewness > 4   (internal) or 20  (boundary) : 0
    faces with interpolation weights (0..1)  < 0.02        : 0
    faces with volume ratio of neighbour cells < 0.01      : 0
    faces with face twist < 0.02                           : 0
    faces on cells with determinant < 0.001                : 0

Scaling iteration 6
Moving mesh using displacement scaling : min:0  max:1
Correcting 2-D mesh motion ...done
Checking faces in error :
    non-orthogonality > 65  degrees                        : 0
    faces with face pyramid volume < 1e-13                 : 0
    faces with face-decomposition tet quality < 1e-30      : 4
    faces with concavity > 80  degrees                     : 0
    faces with skewness > 4   (internal) or 20  (boundary) : 0
    faces with interpolation weights (0..1)  < 0.02        : 0
    faces with volume ratio of neighbour cells < 0.01      : 0
    faces with face twist < 0.02                           : 0
    faces on cells with determinant < 0.001                : 0

Scaling iteration 7
Moving mesh using displacement scaling : min:0  max:1
Correcting 2-D mesh motion ...done
Checking faces in error :
    non-orthogonality > 65  degrees                        : 0
    faces with face pyramid volume < 1e-13                 : 0
    faces with face-decomposition tet quality < 1e-30      : 4
    faces with concavity > 80  degrees                     : 0
    faces with skewness > 4   (internal) or 20  (boundary) : 0
    faces with interpolation weights (0..1)  < 0.02        : 0
    faces with volume ratio of neighbour cells < 0.01      : 0
    faces with face twist < 0.02                           : 0
    faces on cells with determinant < 0.001                : 0

Scaling iteration 8
Moving mesh using displacement scaling : min:0  max:1
Correcting 2-D mesh motion ...done
Checking faces in error :
    non-orthogonality > 65  degrees                        : 0
    faces with face pyramid volume < 1e-13                 : 0
    faces with face-decomposition tet quality < 1e-30      : 4
    faces with concavity > 80  degrees                     : 0
    faces with skewness > 4   (internal) or 20  (boundary) : 0
    faces with interpolation weights (0..1)  < 0.02        : 0
    faces with volume ratio of neighbour cells < 0.01      : 0
    faces with face twist < 0.02                           : 0
    faces on cells with determinant < 0.001                : 0

Scaling iteration 9
Moving mesh using displacement scaling : min:0  max:1
Correcting 2-D mesh motion ...done
Checking faces in error :
    non-orthogonality > 65  degrees                        : 0
    faces with face pyramid volume < 1e-13                 : 0
    faces with face-decomposition tet quality < 1e-30      : 4
    faces with concavity > 80  degrees                     : 0
    faces with skewness > 4   (internal) or 20  (boundary) : 0
    faces with interpolation weights (0..1)  < 0.02        : 0
    faces with volume ratio of neighbour cells < 0.01      : 0
    faces with face twist < 0.02                           : 0
    faces on cells with determinant < 0.001                : 0

Patch points smoothed in = 6.06 s



Morph iteration 0
-----------------
Calculating patchDisplacement as distance to nearest surface point ...
Wanted displacement : average:0.128226 min:0 max:1.2551
Calculated surface displacement in = 0.04 s


Detecting near surfaces ...
Overriding nearest with intersection of close gaps at 0 out of 66985 points.
Overriding displacement on features :
   implicit features    : true
   explicit features    : false
   multi-patch features : false

Attraction:
     linear   : max:(-1.25217 0.0856511 0) avg:(-7.37305e-05 -3.06583e-06 0.000499179)
     feature  : max:(-1.25217 -0.0856509 -0) avg:(-0.000107465 -0.000283668 0.00150687)
Feature analysis : total master points:66985 attraction to :
    feature point   : 0
    feature edge    : 2076
    nearest surface : 64909
    rest            : 0

--> FOAM Warning : Displacement (-0.00123401 -0.00404519 5.99143e-05) at mesh point 199455 coord (22.0219 6.33469 88.6719) points through the surrounding patch faces
Smoothing displacement ...
Iteration 0
Iteration 10
Iteration 20
Displacement smoothed in = 0.91 s


Moving mesh ...

Iteration 0
Moving mesh using displacement scaling : min:1  max:1
Correcting 2-D mesh motion ...done
Checking faces in error :
    non-orthogonality > 65  degrees                        : 0
    faces with face pyramid volume < 1e-13                 : 34
    faces with face-decomposition tet quality < 1e-30      : 26
    faces with concavity > 80  degrees                     : 0
    faces with skewness > 4   (internal) or 20  (boundary) : 0
    faces with interpolation weights (0..1)  < 0.02        : 0
    faces with volume ratio of neighbour cells < 0.01      : 0
    faces with face twist < 0.02                           : 0
    faces on cells with determinant < 0.001                : 0

Iteration 1
Moving mesh using displacement scaling : min:0.75  max:1
Correcting 2-D mesh motion ...done
Checking faces in error :
    non-orthogonality > 65  degrees                        : 0
    faces with face pyramid volume < 1e-13                 : 34
    faces with face-decomposition tet quality < 1e-30      : 26
    faces with concavity > 80  degrees                     : 0
    faces with skewness > 4   (internal) or 20  (boundary) : 0
    faces with interpolation weights (0..1)  < 0.02        : 0
    faces with volume ratio of neighbour cells < 0.01      : 0
    faces with face twist < 0.02                           : 0
    faces on cells with determinant < 0.001                : 0

Iteration 2
Moving mesh using displacement scaling : min:0.5625  max:1
Correcting 2-D mesh motion ...done
Checking faces in error :
    non-orthogonality > 65  degrees                        : 0
    faces with face pyramid volume < 1e-13                 : 34
    faces with face-decomposition tet quality < 1e-30      : 26
    faces with concavity > 80  degrees                     : 0
    faces with skewness > 4   (internal) or 20  (boundary) : 0
    faces with interpolation weights (0..1)  < 0.02        : 0
    faces with volume ratio of neighbour cells < 0.01      : 0
    faces with face twist < 0.02                           : 0
    faces on cells with determinant < 0.001                : 0

Iteration 3
Moving mesh using displacement scaling : min:0.421875  max:1
Correcting 2-D mesh motion ...done
Checking faces in error :
    non-orthogonality > 65  degrees                        : 0
    faces with face pyramid volume < 1e-13                 : 34
    faces with face-decomposition tet quality < 1e-30      : 29
    faces with concavity > 80  degrees                     : 0
    faces with skewness > 4   (internal) or 20  (boundary) : 0
    faces with interpolation weights (0..1)  < 0.02        : 0
    faces with volume ratio of neighbour cells < 0.01      : 0
    faces with face twist < 0.02                           : 0
    faces on cells with determinant < 0.001                : 0

Iteration 4
Moving mesh using displacement scaling : min:0.316406  max:1
Correcting 2-D mesh motion ...done
Checking faces in error :
    non-orthogonality > 65  degrees                        : 0
    faces with face pyramid volume < 1e-13                 : 34
    faces with face-decomposition tet quality < 1e-30      : 29
    faces with concavity > 80  degrees                     : 0
    faces with skewness > 4   (internal) or 20  (boundary) : 0
    faces with interpolation weights (0..1)  < 0.02        : 0
    faces with volume ratio of neighbour cells < 0.01      : 0
    faces with face twist < 0.02                           : 0
    faces on cells with determinant < 0.001                : 0

Iteration 5
Displacement scaling for error reduction set to 0.
Moving mesh using displacement scaling : min:0.237305  max:1
Correcting 2-D mesh motion ...done
Checking faces in error :
    non-orthogonality > 65  degrees                        : 0
    faces with face pyramid volume < 1e-13                 : 34
    faces with face-decomposition tet quality < 1e-30      : 29
    faces with concavity > 80  degrees                     : 0
    faces with skewness > 4   (internal) or 20  (boundary) : 0
    faces with interpolation weights (0..1)  < 0.02        : 0
    faces with volume ratio of neighbour cells < 0.01      : 0
    faces with face twist < 0.02                           : 0
    faces on cells with determinant < 0.001                : 0

Iteration 6
Moving mesh using displacement scaling : min:0  max:1
Correcting 2-D mesh motion ...done
Checking faces in error :
    non-orthogonality > 65  degrees                        : 0
    faces with face pyramid volume < 1e-13                 : 34
    faces with face-decomposition tet quality < 1e-30      : 29
    faces with concavity > 80  degrees                     : 0
    faces with skewness > 4   (internal) or 20  (boundary) : 0
    faces with interpolation weights (0..1)  < 0.02        : 0
    faces with volume ratio of neighbour cells < 0.01      : 0
    faces with face twist < 0.02                           : 0
    faces on cells with determinant < 0.001                : 0

Iteration 7
Moving mesh using displacement scaling : min:0  max:1
Correcting 2-D mesh motion ...done
Checking faces in error :
    non-orthogonality > 65  degrees                        : 0
    faces with face pyramid volume < 1e-13                 : 34
    faces with face-decomposition tet quality < 1e-30      : 29
    faces with concavity > 80  degrees                     : 0
    faces with skewness > 4   (internal) or 20  (boundary) : 0
    faces with interpolation weights (0..1)  < 0.02        : 0
    faces with volume ratio of neighbour cells < 0.01      : 0
    faces with face twist < 0.02                           : 0
    faces on cells with determinant < 0.001                : 0

Iteration 8
Moving mesh using displacement scaling : min:0  max:1
Correcting 2-D mesh motion ...done
Checking faces in error :
    non-orthogonality > 65  degrees                        : 0
    faces with face pyramid volume < 1e-13                 : 34
    faces with face-decomposition tet quality < 1e-30      : 29
    faces with concavity > 80  degrees                     : 0
    faces with skewness > 4   (internal) or 20  (boundary) : 0
    faces with interpolation weights (0..1)  < 0.02        : 0
    faces with volume ratio of neighbour cells < 0.01      : 0
    faces with face twist < 0.02                           : 0
    faces on cells with determinant < 0.001                : 0

Iteration 9
Moving mesh using displacement scaling : min:0  max:1
Correcting 2-D mesh motion ...done
Checking faces in error :
    non-orthogonality > 65  degrees                        : 0
    faces with face pyramid volume < 1e-13                 : 34
    faces with face-decomposition tet quality < 1e-30      : 30
    faces with concavity > 80  degrees                     : 0
    faces with skewness > 4   (internal) or 20  (boundary) : 0
    faces with interpolation weights (0..1)  < 0.02        : 0
    faces with volume ratio of neighbour cells < 0.01      : 0
    faces with face twist < 0.02                           : 0
    faces on cells with determinant < 0.001                : 0
Moved mesh in = 5.04 s


--> FOAM Warning : 
    From function void Foam::snappySnapDriver::doSnap(const Foam::dictionary&, const Foam::dictionary&, Foam::scalar, Foam::scalar, const Foam::snapParameters&)
    in file snappyHexMeshDriver/snappySnapDriver.C at line 2764
    Did not successfully snap mesh. Continuing to snap to resolve easy
    surfaces but the resulting mesh will not satisfy your quality constraints


Morph iteration 1
-----------------
Calculating patchDisplacement as distance to nearest surface point ...
Wanted displacement : average:0.119836 min:0 max:1.16631
Calculated surface displacement in = 0.03 s


Detecting near surfaces ...
Overriding nearest with intersection of close gaps at 0 out of 66985 points.
Overriding displacement on features :
   implicit features    : true
   explicit features    : false
   multi-patch features : false

Attraction:
     linear   : max:(-1.16359 0.0795921 0) avg:(-6.78171e-05 -4.24096e-06 0.000499179)
     feature  : max:(-1.16367 -0.079597 -0) avg:(-0.000103557 -0.000263128 0.0012946)
Feature analysis : total master points:66985 attraction to :
    feature point   : 0
    feature edge    : 2036
    nearest surface : 64949
    rest            : 0

--> FOAM Warning : Displacement (-0.0019399 -0.00640478 0.000395238) at mesh point 199455 coord (22.0214 6.32478 88.6719) points through the surrounding patch faces
Smoothing displacement ...
Iteration 0
Iteration 10
Iteration 20
Displacement smoothed in = 0.91 s


Moving mesh ...

Iteration 0
Moving mesh using displacement scaling : min:1  max:1
Correcting 2-D mesh motion ...done
Checking faces in error :
    non-orthogonality > 65  degrees                        : 0
    faces with face pyramid volume < 1e-13                 : 38
    faces with face-decomposition tet quality < 1e-30      : 29
    faces with concavity > 80  degrees                     : 0
    faces with skewness > 4   (internal) or 20  (boundary) : 0
    faces with interpolation weights (0..1)  < 0.02        : 0
    faces with volume ratio of neighbour cells < 0.01      : 0
    faces with face twist < 0.02                           : 0
    faces on cells with determinant < 0.001                : 0

Iteration 1
Moving mesh using displacement scaling : min:0.75  max:1
Correcting 2-D mesh motion ...done
Checking faces in error :
    non-orthogonality > 65  degrees                        : 0
    faces with face pyramid volume < 1e-13                 : 38
    faces with face-decomposition tet quality < 1e-30      : 29
    faces with concavity > 80  degrees                     : 0
    faces with skewness > 4   (internal) or 20  (boundary) : 0
    faces with interpolation weights (0..1)  < 0.02        : 0
    faces with volume ratio of neighbour cells < 0.01      : 0
    faces with face twist < 0.02                           : 0
    faces on cells with determinant < 0.001                : 0

Iteration 2
Moving mesh using displacement scaling : min:0.5625  max:1
Correcting 2-D mesh motion ...done
Checking faces in error :
    non-orthogonality > 65  degrees                        : 0
    faces with face pyramid volume < 1e-13                 : 38
    faces with face-decomposition tet quality < 1e-30      : 29
    faces with concavity > 80  degrees                     : 0
    faces with skewness > 4   (internal) or 20  (boundary) : 0
    faces with interpolation weights (0..1)  < 0.02        : 0
    faces with volume ratio of neighbour cells < 0.01      : 0
    faces with face twist < 0.02                           : 0
    faces on cells with determinant < 0.001                : 0

Iteration 3
Moving mesh using displacement scaling : min:0.421875  max:1
Correcting 2-D mesh motion ...done
Checking faces in error :
    non-orthogonality > 65  degrees                        : 0
    faces with face pyramid volume < 1e-13                 : 38
    faces with face-decomposition tet quality < 1e-30      : 29
    faces with concavity > 80  degrees                     : 0
    faces with skewness > 4   (internal) or 20  (boundary) : 0
    faces with interpolation weights (0..1)  < 0.02        : 0
    faces with volume ratio of neighbour cells < 0.01      : 0
    faces with face twist < 0.02                           : 0
    faces on cells with determinant < 0.001                : 0

Iteration 4
Moving mesh using displacement scaling : min:0.316406  max:1
Correcting 2-D mesh motion ...done
Checking faces in error :
    non-orthogonality > 65  degrees                        : 0
    faces with face pyramid volume < 1e-13                 : 38
    faces with face-decomposition tet quality < 1e-30      : 29
    faces with concavity > 80  degrees                     : 0
    faces with skewness > 4   (internal) or 20  (boundary) : 0
    faces with interpolation weights (0..1)  < 0.02        : 0
    faces with volume ratio of neighbour cells < 0.01      : 0
    faces with face twist < 0.02                           : 0
    faces on cells with determinant < 0.001                : 0

Iteration 5
Displacement scaling for error reduction set to 0.
Moving mesh using displacement scaling : min:0.237305  max:1
Correcting 2-D mesh motion ...done
Checking faces in error :
    non-orthogonality > 65  degrees                        : 0
    faces with face pyramid volume < 1e-13                 : 38
    faces with face-decomposition tet quality < 1e-30      : 29
    faces with concavity > 80  degrees                     : 0
    faces with skewness > 4   (internal) or 20  (boundary) : 0
    faces with interpolation weights (0..1)  < 0.02        : 0
    faces with volume ratio of neighbour cells < 0.01      : 0
    faces with face twist < 0.02                           : 0
    faces on cells with determinant < 0.001                : 0

Iteration 6
Moving mesh using displacement scaling : min:0  max:1
Correcting 2-D mesh motion ...done
Checking faces in error :
    non-orthogonality > 65  degrees                        : 0
    faces with face pyramid volume < 1e-13                 : 45
    faces with face-decomposition tet quality < 1e-30      : 22
    faces with concavity > 80  degrees                     : 0
    faces with skewness > 4   (internal) or 20  (boundary) : 0
    faces with interpolation weights (0..1)  < 0.02        : 0
    faces with volume ratio of neighbour cells < 0.01      : 0
    faces with face twist < 0.02                           : 0
    faces on cells with determinant < 0.001                : 0

Iteration 7
Moving mesh using displacement scaling : min:0  max:1
Correcting 2-D mesh motion ...done
Checking faces in error :
    non-orthogonality > 65  degrees                        : 0
    faces with face pyramid volume < 1e-13                 : 44
    faces with face-decomposition tet quality < 1e-30      : 23
    faces with concavity > 80  degrees                     : 0
    faces with skewness > 4   (internal) or 20  (boundary) : 0
    faces with interpolation weights (0..1)  < 0.02        : 0
    faces with volume ratio of neighbour cells < 0.01      : 0
    faces with face twist < 0.02                           : 0
    faces on cells with determinant < 0.001                : 0

Iteration 8
Moving mesh using displacement scaling : min:0  max:1
Correcting 2-D mesh motion ...done
Checking faces in error :
    non-orthogonality > 65  degrees                        : 0
    faces with face pyramid volume < 1e-13                 : 44
    faces with face-decomposition tet quality < 1e-30      : 23
    faces with concavity > 80  degrees                     : 0
    faces with skewness > 4   (internal) or 20  (boundary) : 0
    faces with interpolation weights (0..1)  < 0.02        : 0
    faces with volume ratio of neighbour cells < 0.01      : 0
    faces with face twist < 0.02                           : 0
    faces on cells with determinant < 0.001                : 0

Iteration 9
Moving mesh using displacement scaling : min:0  max:1
Correcting 2-D mesh motion ...done
Checking faces in error :
    non-orthogonality > 65  degrees                        : 0
    faces with face pyramid volume < 1e-13                 : 44
    faces with face-decomposition tet quality < 1e-30      : 23
    faces with concavity > 80  degrees                     : 0
    faces with skewness > 4   (internal) or 20  (boundary) : 0
    faces with interpolation weights (0..1)  < 0.02        : 0
    faces with volume ratio of neighbour cells < 0.01      : 0
    faces with face twist < 0.02                           : 0
    faces on cells with determinant < 0.001                : 0
Moved mesh in = 5.07 s


--> FOAM Warning : 
    From function void Foam::snappySnapDriver::doSnap(const Foam::dictionary&, const Foam::dictionary&, Foam::scalar, Foam::scalar, const Foam::snapParameters&)
    in file snappyHexMeshDriver/snappySnapDriver.C at line 2764
    Did not successfully snap mesh. Continuing to snap to resolve easy
    surfaces but the resulting mesh will not satisfy your quality constraints


Morph iteration 2
-----------------
Calculating patchDisplacement as distance to nearest surface point ...
Wanted displacement : average:0.104153 min:0 max:0.995317
Calculated surface displacement in = 0.03 s


Detecting near surfaces ...
Overriding nearest with intersection of close gaps at 0 out of 66985 points.
Overriding displacement on features :
   implicit features    : true
   explicit features    : false
   multi-patch features : false

Attraction:
     linear   : max:(0.992996 0.0679223 -1.10845e-12) avg:(-5.82836e-05 -1.1986e-05 0.000499179)
     feature  : max:(0.993186 -0.0679351 -0) avg:(-0.000116929 -0.000255842 0.00094704)
Feature analysis : total master points:66985 attraction to :
    feature point   : 0
    feature edge    : 1936
    nearest surface : 65049
    rest            : 0

--> FOAM Warning : Displacement (-0.00198123 -0.00648718 0.00122493) at mesh point 199455 coord (22.02 6.31614 88.6719) points through the surrounding patch faces
Smoothing displacement ...
Iteration 0
Iteration 10
Iteration 20
Displacement smoothed in = 0.86 s


Moving mesh ...

Iteration 0
Moving mesh using displacement scaling : min:1  max:1
Correcting 2-D mesh motion ...done
Checking faces in error :
    non-orthogonality > 65  degrees                        : 0
    faces with face pyramid volume < 1e-13                 : 40
    faces with face-decomposition tet quality < 1e-30      : 35
    faces with concavity > 80  degrees                     : 0
    faces with skewness > 4   (internal) or 20  (boundary) : 0
    faces with interpolation weights (0..1)  < 0.02        : 0
    faces with volume ratio of neighbour cells < 0.01      : 0
    faces with face twist < 0.02                           : 0
    faces on cells with determinant < 0.001                : 0

Iteration 1
Moving mesh using displacement scaling : min:0.75  max:1
Correcting 2-D mesh motion ...done
Checking faces in error :
    non-orthogonality > 65  degrees                        : 0
    faces with face pyramid volume < 1e-13                 : 40
    faces with face-decomposition tet quality < 1e-30      : 35
    faces with concavity > 80  degrees                     : 0
    faces with skewness > 4   (internal) or 20  (boundary) : 0
    faces with interpolation weights (0..1)  < 0.02        : 0
    faces with volume ratio of neighbour cells < 0.01      : 0
    faces with face twist < 0.02                           : 0
    faces on cells with determinant < 0.001                : 0

Iteration 2
Moving mesh using displacement scaling : min:0.5625  max:1
Correcting 2-D mesh motion ...done
Checking faces in error :
    non-orthogonality > 65  degrees                        : 0
    faces with face pyramid volume < 1e-13                 : 40
    faces with face-decomposition tet quality < 1e-30      : 35
    faces with concavity > 80  degrees                     : 0
    faces with skewness > 4   (internal) or 20  (boundary) : 0
    faces with interpolation weights (0..1)  < 0.02        : 0
    faces with volume ratio of neighbour cells < 0.01      : 0
    faces with face twist < 0.02                           : 0
    faces on cells with determinant < 0.001                : 0

Iteration 3
Moving mesh using displacement scaling : min:0.421875  max:1
Correcting 2-D mesh motion ...done
Checking faces in error :
    non-orthogonality > 65  degrees                        : 0
    faces with face pyramid volume < 1e-13                 : 40
    faces with face-decomposition tet quality < 1e-30      : 35
    faces with concavity > 80  degrees                     : 0
    faces with skewness > 4   (internal) or 20  (boundary) : 0
    faces with interpolation weights (0..1)  < 0.02        : 0
    faces with volume ratio of neighbour cells < 0.01      : 0
    faces with face twist < 0.02                           : 0
    faces on cells with determinant < 0.001                : 0

Iteration 4
Moving mesh using displacement scaling : min:0.316406  max:1
Correcting 2-D mesh motion ...done
Checking faces in error :
    non-orthogonality > 65  degrees                        : 0
    faces with face pyramid volume < 1e-13                 : 40
    faces with face-decomposition tet quality < 1e-30      : 35
    faces with concavity > 80  degrees                     : 0
    faces with skewness > 4   (internal) or 20  (boundary) : 0
    faces with interpolation weights (0..1)  < 0.02        : 0
    faces with volume ratio of neighbour cells < 0.01      : 0
    faces with face twist < 0.02                           : 0
    faces on cells with determinant < 0.001                : 0

Iteration 5
Displacement scaling for error reduction set to 0.
Moving mesh using displacement scaling : min:0.237305  max:1
Correcting 2-D mesh motion ...done
Checking faces in error :
    non-orthogonality > 65  degrees                        : 0
    faces with face pyramid volume < 1e-13                 : 40
    faces with face-decomposition tet quality < 1e-30      : 35
    faces with concavity > 80  degrees                     : 0
    faces with skewness > 4   (internal) or 20  (boundary) : 0
    faces with interpolation weights (0..1)  < 0.02        : 0
    faces with volume ratio of neighbour cells < 0.01      : 0
    faces with face twist < 0.02                           : 0
    faces on cells with determinant < 0.001                : 0

Iteration 6
Moving mesh using displacement scaling : min:0  max:1
Correcting 2-D mesh motion ...done
Checking faces in error :
    non-orthogonality > 65  degrees                        : 0
    faces with face pyramid volume < 1e-13                 : 53
    faces with face-decomposition tet quality < 1e-30      : 22
    faces with concavity > 80  degrees                     : 0
    faces with skewness > 4   (internal) or 20  (boundary) : 0
    faces with interpolation weights (0..1)  < 0.02        : 0
    faces with volume ratio of neighbour cells < 0.01      : 0
    faces with face twist < 0.02                           : 0
    faces on cells with determinant < 0.001                : 0

Iteration 7
Moving mesh using displacement scaling : min:0  max:1
Correcting 2-D mesh motion ...done
Checking faces in error :
    non-orthogonality > 65  degrees                        : 0
    faces with face pyramid volume < 1e-13                 : 53
    faces with face-decomposition tet quality < 1e-30      : 22
    faces with concavity > 80  degrees                     : 0
    faces with skewness > 4   (internal) or 20  (boundary) : 0
    faces with interpolation weights (0..1)  < 0.02        : 0
    faces with volume ratio of neighbour cells < 0.01      : 0
    faces with face twist < 0.02                           : 0
    faces on cells with determinant < 0.001                : 0

Iteration 8
Moving mesh using displacement scaling : min:0  max:1
Correcting 2-D mesh motion ...done
Checking faces in error :
    non-orthogonality > 65  degrees                        : 0
    faces with face pyramid volume < 1e-13                 : 53
    faces with face-decomposition tet quality < 1e-30      : 22
    faces with concavity > 80  degrees                     : 0
    faces with skewness > 4   (internal) or 20  (boundary) : 0
    faces with interpolation weights (0..1)  < 0.02        : 0
    faces with volume ratio of neighbour cells < 0.01      : 0
    faces with face twist < 0.02                           : 0
    faces on cells with determinant < 0.001                : 0

Iteration 9
Moving mesh using displacement scaling : min:0  max:1
Correcting 2-D mesh motion ...done
Checking faces in error :
    non-orthogonality > 65  degrees                        : 0
    faces with face pyramid volume < 1e-13                 : 53
    faces with face-decomposition tet quality < 1e-30      : 22
    faces with concavity > 80  degrees                     : 0
    faces with skewness > 4   (internal) or 20  (boundary) : 0
    faces with interpolation weights (0..1)  < 0.02        : 0
    faces with volume ratio of neighbour cells < 0.01      : 0
    faces with face twist < 0.02                           : 0
    faces on cells with determinant < 0.001                : 0
Moved mesh in = 5.15 s


--> FOAM Warning : 
    From function void Foam::snappySnapDriver::doSnap(const Foam::dictionary&, const Foam::dictionary&, Foam::scalar, Foam::scalar, const Foam::snapParameters&)
    in file snappyHexMeshDriver/snappySnapDriver.C at line 2764
    Did not successfully snap mesh. Continuing to snap to resolve easy
    surfaces but the resulting mesh will not satisfy your quality constraints


Morph iteration 3
-----------------
Calculating patchDisplacement as distance to nearest surface point ...
Wanted displacement : average:0.0844292 min:0 max:0.854092
Calculated surface displacement in = 0.03 s


Detecting near surfaces ...
Overriding nearest with intersection of close gaps at 0 out of 66985 points.
Overriding displacement on features :
   implicit features    : true
   explicit features    : false
   multi-patch features : false

Attraction:
     linear   : max:(-0.411462 -0.748447 0) avg:(-4.63448e-05 -1.55623e-05 0.000499179)
     feature  : max:(0.411421 0.748372 -0) avg:(-0.000125475 -0.000228452 0.000662462)
Feature analysis : total master points:66985 attraction to :
    feature point   : 0
    feature edge    : 1832
    nearest surface : 65153
    rest            : 0

--> FOAM Warning : Displacement (-0.00149037 -0.00465132 0.00262125) at mesh point 199455 coord (22.0188 6.30954 88.6719) points through the surrounding patch faces
Smoothing displacement ...
Iteration 0
Iteration 10
Iteration 20
Displacement smoothed in = 0.87 s


Moving mesh ...

Iteration 0
Moving mesh using displacement scaling : min:1  max:1
Correcting 2-D mesh motion ...done
Checking faces in error :
    non-orthogonality > 65  degrees                        : 8
    faces with face pyramid volume < 1e-13                 : 44
    faces with face-decomposition tet quality < 1e-30      : 37
    faces with concavity > 80  degrees                     : 0
    faces with skewness > 4   (internal) or 20  (boundary) : 0
    faces with interpolation weights (0..1)  < 0.02        : 0
    faces with volume ratio of neighbour cells < 0.01      : 0
    faces with face twist < 0.02                           : 0
    faces on cells with determinant < 0.001                : 0

Iteration 1
Moving mesh using displacement scaling : min:0.75  max:1
Correcting 2-D mesh motion ...done
Checking faces in error :
    non-orthogonality > 65  degrees                        : 8
    faces with face pyramid volume < 1e-13                 : 44
    faces with face-decomposition tet quality < 1e-30      : 37
    faces with concavity > 80  degrees                     : 0
    faces with skewness > 4   (internal) or 20  (boundary) : 0
    faces with interpolation weights (0..1)  < 0.02        : 0
    faces with volume ratio of neighbour cells < 0.01      : 0
    faces with face twist < 0.02                           : 0
    faces on cells with determinant < 0.001                : 0

Iteration 2
Moving mesh using displacement scaling : min:0.5625  max:1
Correcting 2-D mesh motion ...done
Checking faces in error :
    non-orthogonality > 65  degrees                        : 8
    faces with face pyramid volume < 1e-13                 : 45
    faces with face-decomposition tet quality < 1e-30      : 36
    faces with concavity > 80  degrees                     : 0
    faces with skewness > 4   (internal) or 20  (boundary) : 0
    faces with interpolation weights (0..1)  < 0.02        : 0
    faces with volume ratio of neighbour cells < 0.01      : 0
    faces with face twist < 0.02                           : 0
    faces on cells with determinant < 0.001                : 0

Iteration 3
Moving mesh using displacement scaling : min:0.421875  max:1
Correcting 2-D mesh motion ...done
Checking faces in error :
    non-orthogonality > 65  degrees                        : 8
    faces with face pyramid volume < 1e-13                 : 45
    faces with face-decomposition tet quality < 1e-30      : 36
    faces with concavity > 80  degrees                     : 0
    faces with skewness > 4   (internal) or 20  (boundary) : 0
    faces with interpolation weights (0..1)  < 0.02        : 0
    faces with volume ratio of neighbour cells < 0.01      : 0
    faces with face twist < 0.02                           : 0
    faces on cells with determinant < 0.001                : 0

Iteration 4
Moving mesh using displacement scaling : min:0.316406  max:1
Correcting 2-D mesh motion ...done
Checking faces in error :
    non-orthogonality > 65  degrees                        : 8
    faces with face pyramid volume < 1e-13                 : 45
    faces with face-decomposition tet quality < 1e-30      : 36
    faces with concavity > 80  degrees                     : 0
    faces with skewness > 4   (internal) or 20  (boundary) : 0
    faces with interpolation weights (0..1)  < 0.02        : 0
    faces with volume ratio of neighbour cells < 0.01      : 0
    faces with face twist < 0.02                           : 0
    faces on cells with determinant < 0.001                : 0

Iteration 5
Displacement scaling for error reduction set to 0.
Moving mesh using displacement scaling : min:0.237305  max:1
Correcting 2-D mesh motion ...done
Checking faces in error :
    non-orthogonality > 65  degrees                        : 8
    faces with face pyramid volume < 1e-13                 : 46
    faces with face-decomposition tet quality < 1e-30      : 35
    faces with concavity > 80  degrees                     : 0
    faces with skewness > 4   (internal) or 20  (boundary) : 0
    faces with interpolation weights (0..1)  < 0.02        : 0
    faces with volume ratio of neighbour cells < 0.01      : 0
    faces with face twist < 0.02                           : 0
    faces on cells with determinant < 0.001                : 0

Iteration 6
Moving mesh using displacement scaling : min:0  max:1
Correcting 2-D mesh motion ...done
Checking faces in error :
    non-orthogonality > 65  degrees                        : 8
    faces with face pyramid volume < 1e-13                 : 63
    faces with face-decomposition tet quality < 1e-30      : 18
    faces with concavity > 80  degrees                     : 0
    faces with skewness > 4   (internal) or 20  (boundary) : 0
    faces with interpolation weights (0..1)  < 0.02        : 0
    faces with volume ratio of neighbour cells < 0.01      : 0
    faces with face twist < 0.02                           : 0
    faces on cells with determinant < 0.001                : 0

Iteration 7
Moving mesh using displacement scaling : min:0  max:1
Correcting 2-D mesh motion ...done
Checking faces in error :
    non-orthogonality > 65  degrees                        : 8
    faces with face pyramid volume < 1e-13                 : 63
    faces with face-decomposition tet quality < 1e-30      : 18
    faces with concavity > 80  degrees                     : 0
    faces with skewness > 4   (internal) or 20  (boundary) : 0
    faces with interpolation weights (0..1)  < 0.02        : 0
    faces with volume ratio of neighbour cells < 0.01      : 0
    faces with face twist < 0.02                           : 0
    faces on cells with determinant < 0.001                : 0

Iteration 8
Moving mesh using displacement scaling : min:0  max:1
Correcting 2-D mesh motion ...done
Checking faces in error :
    non-orthogonality > 65  degrees                        : 8
    faces with face pyramid volume < 1e-13                 : 63
[...]
    faces with skewness > 4   (internal) or 20  (boundary) : 0
    faces with interpolation weights (0..1)  < 0.02        : 0
    faces with volume ratio of neighbour cells < 0.01      : 0
    faces with face twist < 0.02                           : 1
    faces on cells with determinant < 0.001                : 0

Iteration 2
Moving mesh using displacement scaling : min:0.5625  max:1
Correcting 2-D mesh motion ...done
Checking faces in error :
    non-orthogonality > 65  degrees                        : 12
    faces with face pyramid volume < 1e-13                 : 50
    faces with face-decomposition tet quality < 1e-30      : 117
    faces with concavity > 80  degrees                     : 0
    faces with skewness > 4   (internal) or 20  (boundary) : 0
    faces with interpolation weights (0..1)  < 0.02        : 0
    faces with volume ratio of neighbour cells < 0.01      : 0
    faces with face twist < 0.02                           : 2
    faces on cells with determinant < 0.001                : 0

Iteration 3
Moving mesh using displacement scaling : min:0.421875  max:1
Correcting 2-D mesh motion ...done
Checking faces in error :
    non-orthogonality > 65  degrees                        : 12
    faces with face pyramid volume < 1e-13                 : 58
    faces with face-decomposition tet quality < 1e-30      : 92
    faces with concavity > 80  degrees                     : 0
    faces with skewness > 4   (internal) or 20  (boundary) : 0
    faces with interpolation weights (0..1)  < 0.02        : 0
    faces with volume ratio of neighbour cells < 0.01      : 0
    faces with face twist < 0.02                           : 1
    faces on cells with determinant < 0.001                : 0

Iteration 4
Moving mesh using displacement scaling : min:0.316406  max:1
Correcting 2-D mesh motion ...done
Checking faces in error :
    non-orthogonality > 65  degrees                        : 12
    faces with face pyramid volume < 1e-13                 : 59
    faces with face-decomposition tet quality < 1e-30      : 89
    faces with concavity > 80  degrees                     : 0
    faces with skewness > 4   (internal) or 20  (boundary) : 0
    faces with interpolation weights (0..1)  < 0.02        : 0
    faces with volume ratio of neighbour cells < 0.01      : 0
    faces with face twist < 0.02                           : 1
    faces on cells with determinant < 0.001                : 0

Iteration 5
Displacement scaling for error reduction set to 0.
Moving mesh using displacement scaling : min:0.237305  max:1
Correcting 2-D mesh motion ...done
Checking faces in error :
    non-orthogonality > 65  degrees                        : 12
    faces with face pyramid volume < 1e-13                 : 59
    faces with face-decomposition tet quality < 1e-30      : 88
    faces with concavity > 80  degrees                     : 0
    faces with skewness > 4   (internal) or 20  (boundary) : 0
    faces with interpolation weights (0..1)  < 0.02        : 0
    faces with volume ratio of neighbour cells < 0.01      : 0
    faces with face twist < 0.02                           : 1
    faces on cells with determinant < 0.001                : 0

Iteration 6
Moving mesh using displacement scaling : min:0  max:1
Correcting 2-D mesh motion ...done
Checking faces in error :
    non-orthogonality > 65  degrees                        : 12
    faces with face pyramid volume < 1e-13                 : 71
    faces with face-decomposition tet quality < 1e-30      : 37
    faces with concavity > 80  degrees                     : 0
    faces with skewness > 4   (internal) or 20  (boundary) : 0
    faces with interpolation weights (0..1)  < 0.02        : 0
    faces with volume ratio of neighbour cells < 0.01      : 0
    faces with face twist < 0.02                           : 0
    faces on cells with determinant < 0.001                : 0

Iteration 7
Moving mesh using displacement scaling : min:0  max:1
Correcting 2-D mesh motion ...done
Checking faces in error :
    non-orthogonality > 65  degrees                        : 12
    faces with face pyramid volume < 1e-13                 : 68
    faces with face-decomposition tet quality < 1e-30      : 41
    faces with concavity > 80  degrees                     : 0
    faces with skewness > 4   (internal) or 20  (boundary) : 0
    faces with interpolation weights (0..1)  < 0.02        : 0
    faces with volume ratio of neighbour cells < 0.01      : 0
    faces with face twist < 0.02                           : 0
    faces on cells with determinant < 0.001                : 0

Iteration 8
Moving mesh using displacement scaling : min:0  max:1
Correcting 2-D mesh motion ...done
Checking faces in error :
    non-orthogonality > 65  degrees                        : 12
    faces with face pyramid volume < 1e-13                 : 68
    faces with face-decomposition tet quality < 1e-30      : 41
    faces with concavity > 80  degrees                     : 0
    faces with skewness > 4   (internal) or 20  (boundary) : 0
    faces with interpolation weights (0..1)  < 0.02        : 0
    faces with volume ratio of neighbour cells < 0.01      : 0
    faces with face twist < 0.02                           : 0
    faces on cells with determinant < 0.001                : 0

Iteration 9
Moving mesh using displacement scaling : min:0  max:1
Correcting 2-D mesh motion ...done
Checking faces in error :
    non-orthogonality > 65  degrees                        : 12
    faces with face pyramid volume < 1e-13                 : 67
    faces with face-decomposition tet quality < 1e-30      : 42
    faces with concavity > 80  degrees                     : 0
    faces with skewness > 4   (internal) or 20  (boundary) : 0
    faces with interpolation weights (0..1)  < 0.02        : 0
    faces with volume ratio of neighbour cells < 0.01      : 0
    faces with face twist < 0.02                           : 0
    faces on cells with determinant < 0.001                : 0
Moved mesh in = 6.18 s


--> FOAM Warning : 
    From function void Foam::snappySnapDriver::doSnap(const Foam::dictionary&, const Foam::dictionary&, Foam::scalar, Foam::scalar, const Foam::snapParameters&)
    in file snappyHexMeshDriver/snappySnapDriver.C at line 2764
    Did not successfully snap mesh. Continuing to snap to resolve easy
    surfaces but the resulting mesh will not satisfy your quality constraints


Morph iteration 9
-----------------
Calculating patchDisplacement as distance to nearest surface point ...
Wanted displacement : average:0.0141489 min:0 max:0.514828
Calculated surface displacement in = 0.05 s


Detecting near surfaces ...
Overriding nearest with intersection of close gaps at 0 out of 66985 points.
Overriding displacement on features :
   implicit features    : true
   explicit features    : false
   multi-patch features : false

Attraction:
     linear   : max:(0 0.514828 0) avg:(-4.14115e-06 -6.48557e-06 0.000499179)
     feature  : max:(-0 0.514828 -0) avg:(-9.18182e-05 -6.72267e-05 0.000499179)
Feature analysis : total master points:66985 attraction to :
    feature point   : 0
    feature edge    : 1760
    nearest surface : 65225
    rest            : 0

--> FOAM Warning : Displacement (-0.0125152 -0.0446673 0) at mesh point 151644 coord (21.942 6.40366 88.6719) points through the surrounding patch faces
Smoothing displacement ...
Iteration 0
Iteration 10
Iteration 20
Displacement smoothed in = 0.72 s


Moving mesh ...

Iteration 0
Moving mesh using displacement scaling : min:1  max:1
Correcting 2-D mesh motion ...done
Checking faces in error :
    non-orthogonality > 65  degrees                        : 62
    faces with face pyramid volume < 1e-13                 : 557
    faces with face-decomposition tet quality < 1e-30      : 153
    faces with concavity > 80  degrees                     : 0
    faces with skewness > 4   (internal) or 20  (boundary) : 0
    faces with interpolation weights (0..1)  < 0.02        : 0
    faces with volume ratio of neighbour cells < 0.01      : 16
    faces with face twist < 0.02                           : 0
    faces on cells with determinant < 0.001                : 0

Iteration 1
Moving mesh using displacement scaling : min:0.75  max:1
Correcting 2-D mesh motion ...done
Checking faces in error :
    non-orthogonality > 65  degrees                        : 49
    faces with face pyramid volume < 1e-13                 : 95
    faces with face-decomposition tet quality < 1e-30      : 128
    faces with concavity > 80  degrees                     : 3
    faces with skewness > 4   (internal) or 20  (boundary) : 0
    faces with interpolation weights (0..1)  < 0.02        : 0
    faces with volume ratio of neighbour cells < 0.01      : 16
    faces with face twist < 0.02                           : 0
    faces on cells with determinant < 0.001                : 0

Iteration 2
Moving mesh using displacement scaling : min:0.5625  max:1
Correcting 2-D mesh motion ...done
Checking faces in error :
    non-orthogonality > 65  degrees                        : 37
    faces with face pyramid volume < 1e-13                 : 74
    faces with face-decomposition tet quality < 1e-30      : 139
    faces with concavity > 80  degrees                     : 2
    faces with skewness > 4   (internal) or 20  (boundary) : 0
    faces with interpolation weights (0..1)  < 0.02        : 0
    faces with volume ratio of neighbour cells < 0.01      : 16
    faces with face twist < 0.02                           : 1
    faces on cells with determinant < 0.001                : 0

Iteration 3
Moving mesh using displacement scaling : min:0.421875  max:1
Correcting 2-D mesh motion ...done
Checking faces in error :
    non-orthogonality > 65  degrees                        : 33
    faces with face pyramid volume < 1e-13                 : 73
    faces with face-decomposition tet quality < 1e-30      : 130
    faces with concavity > 80  degrees                     : 3
    faces with skewness > 4   (internal) or 20  (boundary) : 0
    faces with interpolation weights (0..1)  < 0.02        : 0
    faces with volume ratio of neighbour cells < 0.01      : 4
    faces with face twist < 0.02                           : 0
    faces on cells with determinant < 0.001                : 0

Iteration 4
Moving mesh using displacement scaling : min:0.316406  max:1
Correcting 2-D mesh motion ...done
Checking faces in error :
    non-orthogonality > 65  degrees                        : 32
    faces with face pyramid volume < 1e-13                 : 74
    faces with face-decomposition tet quality < 1e-30      : 124
    faces with concavity > 80  degrees                     : 3
    faces with skewness > 4   (internal) or 20  (boundary) : 0
    faces with interpolation weights (0..1)  < 0.02        : 0
    faces with volume ratio of neighbour cells < 0.01      : 0
    faces with face twist < 0.02                           : 0
    faces on cells with determinant < 0.001                : 0

Iteration 5
Displacement scaling for error reduction set to 0.
Moving mesh using displacement scaling : min:0.237305  max:1
Correcting 2-D mesh motion ...done
Checking faces in error :
    non-orthogonality > 65  degrees                        : 30
    faces with face pyramid volume < 1e-13                 : 72
    faces with face-decomposition tet quality < 1e-30      : 119
    faces with concavity > 80  degrees                     : 2
    faces with skewness > 4   (internal) or 20  (boundary) : 0
    faces with interpolation weights (0..1)  < 0.02        : 0
    faces with volume ratio of neighbour cells < 0.01      : 0
    faces with face twist < 0.02                           : 0
    faces on cells with determinant < 0.001                : 0

Iteration 6
Moving mesh using displacement scaling : min:0  max:1
Correcting 2-D mesh motion ...done
Checking faces in error :
    non-orthogonality > 65  degrees                        : 14
    faces with face pyramid volume < 1e-13                 : 73
    faces with face-decomposition tet quality < 1e-30      : 70
    faces with concavity > 80  degrees                     : 0
    faces with skewness > 4   (internal) or 20  (boundary) : 0
    faces with interpolation weights (0..1)  < 0.02        : 0
    faces with volume ratio of neighbour cells < 0.01      : 0
    faces with face twist < 0.02                           : 4
    faces on cells with determinant < 0.001                : 0

Iteration 7
Moving mesh using displacement scaling : min:0  max:1
Correcting 2-D mesh motion ...done
Checking faces in error :
    non-orthogonality > 65  degrees                        : 14
    faces with face pyramid volume < 1e-13                 : 73
    faces with face-decomposition tet quality < 1e-30      : 60
    faces with concavity > 80  degrees                     : 0
    faces with skewness > 4   (internal) or 20  (boundary) : 0
    faces with interpolation weights (0..1)  < 0.02        : 0
    faces with volume ratio of neighbour cells < 0.01      : 0
    faces with face twist < 0.02                           : 4
    faces on cells with determinant < 0.001                : 0

Iteration 8
Moving mesh using displacement scaling : min:0  max:1
Correcting 2-D mesh motion ...done
Checking faces in error :
    non-orthogonality > 65  degrees                        : 14
    faces with face pyramid volume < 1e-13                 : 71
    faces with face-decomposition tet quality < 1e-30      : 62
    faces with concavity > 80  degrees                     : 0
    faces with skewness > 4   (internal) or 20  (boundary) : 0
    faces with interpolation weights (0..1)  < 0.02        : 0
    faces with volume ratio of neighbour cells < 0.01      : 0
    faces with face twist < 0.02                           : 4
    faces on cells with determinant < 0.001                : 0

Iteration 9
Moving mesh using displacement scaling : min:0  max:1
Correcting 2-D mesh motion ...done
Checking faces in error :
    non-orthogonality > 65  degrees                        : 14
    faces with face pyramid volume < 1e-13                 : 71
    faces with face-decomposition tet quality < 1e-30      : 66
    faces with concavity > 80  degrees                     : 0
    faces with skewness > 4   (internal) or 20  (boundary) : 0
    faces with interpolation weights (0..1)  < 0.02        : 0
    faces with volume ratio of neighbour cells < 0.01      : 0
    faces with face twist < 0.02                           : 4
    faces on cells with determinant < 0.001                : 0
Moved mesh in = 6.77 s


--> FOAM Warning : 
    From function void Foam::snappySnapDriver::doSnap(const Foam::dictionary&, const Foam::dictionary&, Foam::scalar, Foam::scalar, const Foam::snapParameters&)
    in file snappyHexMeshDriver/snappySnapDriver.C at line 2764
    Did not successfully snap mesh. Continuing to snap to resolve easy
    surfaces but the resulting mesh will not satisfy your quality constraints

Repatching faces according to nearest surface ...
Repatched 0 faces in = 0.15 s


Edge intersection testing:
    Number of edges             : 770232
    Number of edges to retest   : 279383
    Number of intersected edges : 61670
Merging 15383 sets of faces.

Edge intersection testing:
    Number of edges             : 754847
    Number of edges to retest   : 65610
    Number of intersected edges : 46285

Undo iteration 0
----------------
Checking faces in error :
    non-orthogonality > 65  degrees                        : 14
    faces with face pyramid volume < 1e-13                 : 71
    faces with face-decomposition tet quality < 1e-30      : 66
    faces with concavity > 80  degrees                     : 0
    faces with skewness > 4   (internal) or 20  (boundary) : 0
    faces with interpolation weights (0..1)  < 0.02        : 0
    faces with volume ratio of neighbour cells < 0.01      : 0
    faces with face twist < 0.02                           : 4
    faces on cells with determinant < 0.001                : 0
Masters that need to be restored:141
Edge intersection testing:
    Number of edges             : 754988
    Number of edges to retest   : 1291
    Number of intersected edges : 46426


Undo iteration 1
----------------
Checking faces in error :
    non-orthogonality > 65  degrees                        : 14
    faces with face pyramid volume < 1e-13                 : 71
    faces with face-decomposition tet quality < 1e-30      : 66
    faces with concavity > 80  degrees                     : 0
    faces with skewness > 4   (internal) or 20  (boundary) : 0
    faces with interpolation weights (0..1)  < 0.02        : 0
    faces with volume ratio of neighbour cells < 0.01      : 0
    faces with face twist < 0.02                           : 4
    faces on cells with determinant < 0.001                : 0
Masters that need to be restored:0

Merging all points on surface that
- are used by only two boundary faces and
- make an angle with a cosine of more than 0.5.

Removing 15229 straight edge points ...

Edge intersection testing:
    Number of edges             : 754988
    Number of edges to retest   : 64791
    Number of intersected edges : 46296

Undo iteration 0
----------------
Checking faces in error :
    non-orthogonality > 65  degrees                        : 14
    faces with face pyramid volume < 1e-13                 : 89
    faces with face-decomposition tet quality < 1e-30      : 94
    faces with concavity > 80  degrees                     : 0
    faces with skewness > 4   (internal) or 20  (boundary) : 0
    faces with interpolation weights (0..1)  < 0.02        : 0
    faces with volume ratio of neighbour cells < 0.01      : 0
    faces with face twist < 0.02                           : 4
    faces on cells with determinant < 0.001                : 0
Detected 42 error faces on boundaries that have been merged. These will be restored to their original faces.

Edge intersection testing:
    Number of edges             : 754988
    Number of edges to retest   : 328
    Number of intersected edges : 46325

Undo iteration 1
----------------
Checking faces in error :
    non-orthogonality > 65  degrees                        : 14
    faces with face pyramid volume < 1e-13                 : 71
    faces with face-decomposition tet quality < 1e-30      : 70
    faces with concavity > 80  degrees                     : 0
    faces with skewness > 4   (internal) or 20  (boundary) : 0
    faces with interpolation weights (0..1)  < 0.02        : 0
    faces with volume ratio of neighbour cells < 0.01      : 0
    faces with face twist < 0.02                           : 4
    faces on cells with determinant < 0.001                : 0
Detected 0 error faces on boundaries that have been merged. These will be restored to their original faces.

Detected 159 error faces in mesh. Restoring neighbours of faces in error.

Edge intersection testing:
    Number of edges             : 754988
    Number of edges to retest   : 6118
    Number of intersected edges : 46329
Snapped mesh : cells:227550  faces:754988  points:304289
Cells per refinement level:
    0	62388
    1	6944
    2	29242
    3	36636
    4	36136
    5	56204
Writing mesh to time constant
Wrote mesh in = 6.41 s.
Mesh snapped in = 78.16 s.
Checking final mesh ...
Checking faces in error :
    non-orthogonality > 65  degrees                        : 14
    faces with face pyramid volume < 1e-13                 : 71
    faces with face-decomposition tet quality < 1e-30      : 66
    faces with concavity > 80  degrees                     : 0
    faces with skewness > 4   (internal) or 20  (boundary) : 0
    faces with interpolation weights (0..1)  < 0.02        : 0
    faces with volume ratio of neighbour cells < 0.01      : 0
    faces with face twist < 0.02                           : 4
    faces on cells with determinant < 0.001                : 0
Finished meshing with 155 illegal faces (concave, zero area or negative cell pyramid volume)
Finished meshing in = 133.23 s.
End

